api/pglib_opf_case3012wp_k__api.m
%%%%%%%%%%%%%%%%%%%%%%%%%%%%%%%%%%%%%%%%%%%%%%%%%%%%%%%%%%%%%%%%%%%%%%%%%%%
%%%%                                                                  %%%%%
%%%%    IEEE PES Power Grid Library - Optimal Power Flow - v20.04     %%%%%
%%%%          (https://github.com/power-grid-lib/pglib-opf)           %%%%%
%%%%             Benchmark Group - Active Power Increase              %%%%%
%%%%                         12 - July - 2020                         %%%%%
%%%%                                                                  %%%%%
%%%%%%%%%%%%%%%%%%%%%%%%%%%%%%%%%%%%%%%%%%%%%%%%%%%%%%%%%%%%%%%%%%%%%%%%%%%
function mpc = pglib_opf_case3012wp_k__api
mpc.version = '2';
mpc.baseMVA = 100.0;

%% bus data
%	bus_i	type	Pd	Qd	Gs	Bs	area	Vm	Va	baseKV	zone	Vmax	Vmin
mpc.bus = [
	1	 1	 0.0	 0.0	 0.0	 0.0	 1	    1.03000	    0.00000	 220.0	 1	    1.11000	    0.95000;
	2	 1	 0.0	 0.0	 0.0	 0.0	 1	    1.03000	    0.00000	 220.0	 1	    1.11000	    0.95000;
	3	 1	 0.0	 0.0	 0.0	 0.0	 1	    1.03000	    0.00000	 220.0	 1	    1.11000	    0.95000;
	4	 1	 0.0	 0.0	 0.0	 0.0	 1	    1.03000	    0.00000	 220.0	 1	    1.11000	    0.95000;
	5	 1	 0.0	 0.0	 0.0	 0.0	 1	    1.03000	    0.00000	 220.0	 1	    1.11000	    0.95000;
	6	 1	 0.0	 0.0	 0.0	 0.0	 1	    1.03000	    0.00000	 220.0	 1	    1.11000	    0.95000;
	7	 1	 0.0	 0.0	 0.0	 0.0	 1	    1.03000	    0.00000	 220.0	 1	    1.11000	    0.95000;
	8	 1	 0.0	 0.0	 0.0	 0.0	 1	    1.03000	    0.00000	 220.0	 1	    1.11000	    0.95000;
	9	 1	 0.0	 0.0	 0.0	 0.0	 1	    1.03000	    0.00000	 220.0	 1	    1.11000	    0.95000;
	10	 1	 0.0	 0.0	 0.0	 0.0	 1	    1.03000	    0.00000	 220.0	 1	    1.11000	    0.95000;
	11	 1	 0.0	 0.0	 0.0	 0.0	 1	    1.00000	    0.00000	 400.0	 1	    1.05000	    0.95000;
	12	 1	 0.0	 0.0	 0.0	 0.0	 1	    1.00000	    0.00000	 400.0	 1	    1.05000	    0.95000;
	13	 1	 0.0	 0.0	 0.0	 0.0	 1	    1.00000	    0.00000	 400.0	 1	    1.05000	    0.95000;
	14	 1	 0.0	 0.0	 0.0	 0.0	 1	    1.03000	    0.00000	 220.0	 1	    1.11000	    0.95000;
	15	 1	 0.0	 0.0	 0.0	 0.0	 1	    1.03000	    0.00000	 220.0	 1	    1.11000	    0.95000;
	16	 1	 0.0	 0.0	 0.0	 0.0	 1	    1.03000	    0.00000	 220.0	 1	    1.11000	    0.95000;
	17	 1	 0.0	 0.0	 0.0	 0.0	 1	    1.03000	    0.00000	 220.0	 1	    1.11000	    0.95000;
	18	 1	 0.0	 0.0	 0.0	 0.0	 1	    1.03000	    0.00000	 220.0	 1	    1.11000	    0.95000;
	19	 1	 0.0	 0.0	 0.0	 0.0	 1	    1.00000	    0.00000	 400.0	 1	    1.05000	    0.95000;
	20	 1	 0.0	 0.0	 0.0	 0.0	 1	    1.00000	    0.00000	 400.0	 1	    1.05000	    0.95000;
	21	 1	 0.0	 0.0	 0.0	 0.0	 1	    1.00000	    0.00000	 400.0	 1	    1.05000	    0.95000;
	22	 1	 0.0	 0.0	 0.0	 0.0	 1	    1.00000	    0.00000	 400.0	 1	    1.05000	    0.95000;
	23	 1	 0.0	 0.0	 0.0	 0.0	 1	    1.00000	    0.00000	 400.0	 1	    1.05000	    0.95000;
	24	 2	 11.59	 20.10	 0.0	 0.0	 1	    1.03000	    0.00000	 220.0	 1	    1.11000	    0.95000;
	25	 2	 11.59	 20.10	 0.0	 0.0	 1	    1.03000	    0.00000	 220.0	 1	    1.11000	    0.95000;
	26	 1	 0.0	 0.0	 0.0	 0.0	 1	    1.03000	    0.00000	 220.0	 1	    1.11000	    0.95000;
	27	 1	 0.0	 0.0	 0.0	 0.0	 1	    1.03000	    0.00000	 220.0	 1	    1.11000	    0.95000;
	28	 1	 0.0	 0.0	 0.0	 0.0	 1	    1.03000	    0.00000	 220.0	 1	    1.11000	    0.95000;
	29	 1	 0.0	 0.0	 0.0	 0.0	 1	    1.03000	    0.00000	 220.0	 1	    1.11000	    0.95000;
	30	 1	 0.0	 0.0	 0.0	 0.0	 1	    1.03000	    0.00000	 220.0	 1	    1.11000	    0.95000;
	31	 1	 0.0	 0.0	 0.0	 0.0	 1	    1.03000	    0.00000	 220.0	 1	    1.11000	    0.95000;
	32	 1	 0.0	 0.0	 0.0	 0.0	 1	    1.03000	    0.00000	 220.0	 1	    1.11000	    0.95000;
	33	 1	 0.0	 0.0	 0.0	 0.0	 1	    1.03000	    0.00000	 220.0	 1	    1.11000	    0.95000;
	34	 1	 0.0	 0.0	 0.0	 0.0	 1	    1.00000	    0.00000	 400.0	 1	    1.05000	    0.95000;
	35	 1	 0.0	 0.0	 0.0	 0.0	 1	    1.00000	    0.00000	 400.0	 1	    1.05000	    0.95000;
	36	 1	 0.0	 0.0	 0.0	 0.0	 1	    1.00000	    0.00000	 400.0	 1	    1.05000	    0.95000;
	37	 3	 56.13	 86.21	 0.0	 0.0	 1	    1.03000	    0.00000	 220.0	 1	    1.11000	    0.95000;
	38	 2	 62.89	 89.93	 0.0	 0.0	 1	    1.03000	    0.00000	 220.0	 1	    1.11000	    0.95000;
	39	 2	 23.18	 40.19	 0.0	 0.0	 1	    1.03000	    0.00000	 220.0	 1	    1.11000	    0.95000;
	40	 2	 69.52	 120.57	 0.0	 0.0	 1	    1.00000	    0.00000	 400.0	 1	    1.05000	    0.95000;
	41	 2	 69.52	 120.57	 0.0	 0.0	 1	    1.00000	    0.00000	 400.0	 1	    1.05000	    0.95000;
	42	 1	 0.0	 0.0	 0.0	 0.0	 1	    1.03000	    0.00000	 220.0	 1	    1.11000	    0.95000;
	43	 1	 0.0	 0.0	 0.0	 0.0	 1	    1.03000	    0.00000	 220.0	 1	    1.11000	    0.95000;
	44	 1	 0.0	 0.0	 0.0	 0.0	 1	    1.00000	    0.00000	 400.0	 1	    1.05000	    0.95000;
	45	 1	 0.0	 0.0	 0.0	 0.0	 1	    1.00000	    0.00000	 400.0	 1	    1.05000	    0.95000;
	46	 1	 0.0	 0.0	 0.0	 0.0	 1	    1.03000	    0.00000	 220.0	 1	    1.11000	    0.95000;
	47	 1	 0.0	 0.0	 0.0	 0.0	 1	    1.03000	    0.00000	 220.0	 1	    1.11000	    0.95000;
	48	 1	 0.0	 0.0	 0.0	 0.0	 1	    1.03000	    0.00000	 220.0	 1	    1.11000	    0.95000;
	49	 1	 0.0	 0.0	 0.0	 0.0	 1	    1.03000	    0.00000	 220.0	 2	    1.11000	    0.95000;
	50	 1	 0.0	 0.0	 0.0	 0.0	 1	    1.03000	    0.00000	 220.0	 2	    1.11000	    0.95000;
	51	 1	 0.0	 0.0	 0.0	 0.0	 1	    1.03000	    0.00000	 220.0	 2	    1.11000	    0.95000;
	52	 1	 0.0	 0.0	 0.0	 0.0	 1	    1.03000	    0.00000	 220.0	 2	    1.11000	    0.95000;
	53	 1	 0.0	 0.0	 0.0	 0.0	 1	    1.03000	    0.00000	 220.0	 2	    1.11000	    0.95000;
	54	 1	 3.72	 1.00	 0.0	 0.0	 1	    1.03000	    0.00000	 220.0	 2	    1.11000	    0.95000;
	55	 1	 0.0	 0.0	 0.0	 0.0	 1	    1.03000	    0.00000	 220.0	 2	    1.11000	    0.95000;
	56	 1	 0.0	 0.0	 0.0	 0.0	 1	    1.00000	    0.00000	 400.0	 2	    1.05000	    0.95000;
	57	 2	 30.12	 60.29	 0.0	 0.0	 1	    1.03000	    0.00000	 220.0	 2	    1.11000	    0.95000;
	58	 2	 62.57	 120.57	 0.0	 0.0	 1	    1.03000	    0.00000	 220.0	 2	    1.11000	    0.95000;
	59	 2	 15.06	 30.14	 0.0	 0.0	 1	    1.03000	    0.00000	 220.0	 2	    1.11000	    0.95000;
	60	 2	 30.12	 50.24	 0.0	 0.0	 1	    1.00000	    0.00000	 400.0	 2	    1.05000	    0.95000;
	61	 2	 30.12	 50.24	 0.0	 0.0	 1	    1.00000	    0.00000	 400.0	 2	    1.05000	    0.95000;
	62	 1	 0.0	 0.0	 0.0	 0.0	 1	    1.03000	    0.00000	 220.0	 2	    1.11000	    0.95000;
	63	 1	 0.0	 0.0	 0.0	 0.0	 1	    1.00000	    0.00000	 400.0	 2	    1.05000	    0.95000;
	64	 1	 0.0	 0.0	 0.0	 0.0	 1	    1.00000	    0.00000	 400.0	 2	    1.05000	    0.95000;
	65	 1	 0.0	 0.0	 0.0	 0.0	 1	    1.00000	    0.00000	 400.0	 2	    1.05000	    0.95000;
	66	 1	 0.0	 0.0	 0.0	 0.0	 1	    1.03000	    0.00000	 220.0	 2	    1.11000	    0.95000;
	67	 1	 0.0	 0.0	 0.0	 0.0	 1	    1.03000	    0.00000	 220.0	 2	    1.11000	    0.95000;
	68	 1	 0.0	 0.0	 0.0	 0.0	 1	    1.00000	    0.00000	 400.0	 2	    1.05000	    0.95000;
	69	 1	 0.0	 0.0	 0.0	 0.0	 1	    1.00000	    0.00000	 400.0	 2	    1.05000	    0.95000;
	70	 2	 15.06	 30.14	 0.0	 0.0	 1	    1.03000	    0.00000	 220.0	 2	    1.11000	    0.95000;
	71	 2	 15.06	 30.14	 0.0	 0.0	 1	    1.03000	    0.00000	 220.0	 2	    1.11000	    0.95000;
	72	 2	 15.06	 30.14	 0.0	 0.0	 1	    1.00000	    0.00000	 400.0	 2	    1.05000	    0.95000;
	73	 2	 30.12	 60.29	 0.0	 0.0	 1	    1.00000	    0.00000	 400.0	 2	    1.05000	    0.95000;
	74	 2	 172.63	 60.29	 0.0	 0.0	 1	    1.03000	    0.00000	 220.0	 2	    1.11000	    0.95000;
	75	 1	 33.60	 10.05	 0.0	 0.0	 1	    1.03000	    0.00000	 220.0	 2	    1.11000	    0.95000;
	76	 1	 0.0	 0.0	 0.0	 0.0	 1	    1.03000	    0.00000	 220.0	 2	    1.11000	    0.95000;
	77	 1	 0.0	 0.0	 0.0	 0.0	 1	    1.03000	    0.00000	 220.0	 2	    1.11000	    0.95000;
	78	 1	 0.0	 0.0	 0.0	 0.0	 1	    1.03000	    0.00000	 220.0	 2	    1.11000	    0.95000;
	79	 1	 0.0	 0.0	 0.0	 0.0	 1	    1.03000	    0.00000	 220.0	 2	    1.11000	    0.95000;
	80	 1	 0.0	 0.0	 0.0	 0.0	 1	    1.00000	    0.00000	 400.0	 2	    1.05000	    0.95000;
	81	 1	 0.0	 0.0	 0.0	 0.0	 1	    1.00000	    0.00000	 400.0	 2	    1.05000	    0.95000;
	82	 1	 0.0	 0.0	 0.0	 0.0	 1	    1.03000	    0.00000	 220.0	 2	    1.11000	    0.95000;
	83	 1	 0.0	 0.0	 0.0	 0.0	 1	    1.03000	    0.00000	 220.0	 2	    1.11000	    0.95000;
	84	 1	 0.0	 0.0	 0.0	 0.0	 1	    1.03000	    0.00000	 220.0	 2	    1.11000	    0.95000;
	85	 1	 0.0	 0.0	 0.0	 0.0	 1	    1.03000	    0.00000	 220.0	 3	    1.11000	    0.95000;
	86	 1	 9.35	 0.00	 0.0	 0.0	 1	    1.03000	    0.00000	 220.0	 3	    1.11000	    0.95000;
	87	 1	 8.18	 0.00	 0.0	 0.0	 1	    1.03000	    0.00000	 220.0	 3	    1.11000	    0.95000;
	88	 1	 0.0	 0.0	 0.0	 0.0	 1	    1.03000	    0.00000	 220.0	 3	    1.11000	    0.95000;
	89	 1	 0.0	 0.0	 0.0	 0.0	 1	    1.03000	    0.00000	 220.0	 3	    1.11000	    0.95000;
	90	 1	 0.0	 0.0	 0.0	 0.0	 1	    1.03000	    0.00000	 220.0	 3	    1.11000	    0.95000;
	91	 1	 0.0	 0.0	 0.0	 0.0	 1	    1.03000	    0.00000	 220.0	 3	    1.11000	    0.95000;
	92	 1	 0.0	 0.0	 0.0	 0.0	 1	    1.03000	    0.00000	 220.0	 3	    1.11000	    0.95000;
	93	 1	 0.0	 0.0	 0.0	 0.0	 1	    1.03000	    0.00000	 220.0	 3	    1.11000	    0.95000;
	94	 2	 32.44	 70.33	 0.0	 0.0	 1	    1.03000	    0.00000	 220.0	 3	    1.11000	    0.95000;
	95	 2	 48.66	 103.49	 0.0	 0.0	 1	    1.03000	    0.00000	 220.0	 3	    1.11000	    0.95000;
	96	 1	 7.72	 -24.99	 0.0	 0.0	 1	    1.03000	    0.00000	 220.0	 3	    1.11000	    0.95000;
	97	 1	 0.0	 0.0	 0.0	 0.0	 1	    1.03000	    0.00000	 220.0	 3	    1.11000	    0.95000;
	98	 2	 37.07	 142.68	 0.0	 0.0	 1	    1.00000	    0.00000	 400.0	 3	    1.05000	    0.95000;
	99	 1	 0.0	 0.0	 0.0	 0.0	 1	    1.00000	    0.00000	 400.0	 3	    1.05000	    0.95000;
	100	 1	 0.0	 0.0	 0.0	 0.0	 1	    1.03000	    0.00000	 220.0	 3	    1.11000	    0.95000;
	101	 1	 0.0	 0.0	 0.0	 0.0	 1	    1.03000	    0.00000	 220.0	 3	    1.11000	    0.95000;
	102	 1	 0.0	 0.0	 0.0	 0.0	 1	    1.03000	    0.00000	 220.0	 3	    1.11000	    0.95000;
	103	 1	 52.02	 7.94	 0.0	 0.0	 1	    1.03000	    0.00000	 220.0	 3	    1.11000	    0.95000;
	104	 1	 0.0	 0.0	 0.0	 0.0	 1	    1.03000	    0.00000	 220.0	 3	    1.11000	    0.95000;
	105	 1	 0.0	 0.0	 0.0	 0.0	 1	    1.03000	    0.00000	 220.0	 3	    1.11000	    0.95000;
	106	 1	 0.0	 0.0	 0.0	 0.0	 1	    1.03000	    0.00000	 220.0	 3	    1.11000	    0.95000;
	107	 1	 0.0	 0.0	 0.0	 0.0	 1	    1.03000	    0.00000	 220.0	 3	    1.11000	    0.95000;
	108	 1	 0.0	 0.0	 0.0	 0.0	 1	    1.03000	    0.00000	 220.0	 3	    1.11000	    0.95000;
	109	 1	 0.0	 0.0	 0.0	 0.0	 1	    1.00000	    0.00000	 400.0	 3	    1.05000	    0.95000;
	110	 1	 0.0	 0.0	 0.0	 0.0	 1	    1.00000	    0.00000	 400.0	 3	    1.05000	    0.95000;
	111	 1	 0.0	 0.0	 0.0	 0.0	 1	    1.03000	    0.00000	 220.0	 3	    1.11000	    0.95000;
	112	 1	 0.0	 0.0	 0.0	 0.0	 1	    1.03000	    0.00000	 220.0	 3	    1.11000	    0.95000;
	113	 1	 0.0	 0.0	 0.0	 0.0	 1	    1.03000	    0.00000	 220.0	 3	    1.11000	    0.95000;
	114	 1	 0.0	 0.0	 0.0	 0.0	 1	    1.03000	    0.00000	 220.0	 3	    1.11000	    0.95000;
	115	 2	 33.85	 18.51	 0.0	 0.0	 1	    1.03000	    0.00000	 220.0	 3	    1.11000	    0.95000;
	116	 1	 0.0	 0.0	 0.0	 0.0	 1	    1.03000	    0.00000	 220.0	 3	    1.11000	    0.95000;
	117	 1	 0.0	 0.0	 0.0	 0.0	 1	    1.03000	    0.00000	 220.0	 3	    1.11000	    0.95000;
	118	 1	 0.0	 0.0	 0.0	 0.0	 1	    1.03000	    0.00000	 220.0	 3	    1.11000	    0.95000;
	119	 1	 0.0	 0.0	 0.0	 0.0	 1	    1.03000	    0.00000	 220.0	 3	    1.11000	    0.95000;
	120	 1	 0.0	 0.0	 0.0	 0.0	 1	    1.03000	    0.00000	 220.0	 3	    1.11000	    0.95000;
	121	 2	 0.0	 0.0	 0.0	 0.0	 1	    1.03000	    0.00000	 220.0	 3	    1.11000	    0.95000;
	122	 2	 11.59	 44.21	 0.0	 0.0	 1	    1.03000	    0.00000	 220.0	 3	    1.11000	    0.95000;
	123	 2	 8.11	 18.09	 0.0	 0.0	 1	    1.03000	    0.00000	 220.0	 3	    1.11000	    0.95000;
	124	 2	 9.27	 21.10	 0.0	 0.0	 1	    1.03000	    0.00000	 220.0	 3	    1.11000	    0.95000;
	125	 1	 0.0	 0.0	 0.0	 0.0	 1	    1.03000	    0.00000	 220.0	 3	    1.11000	    0.95000;
	126	 1	 82.49	 7.94	 0.0	 0.0	 1	    1.03000	    0.00000	 220.0	 3	    1.11000	    0.95000;
	127	 1	 0.0	 0.0	 0.0	 0.0	 1	    1.03000	    0.00000	 220.0	 3	    1.11000	    0.95000;
	128	 1	 0.0	 0.0	 0.0	 0.0	 1	    1.03000	    0.00000	 220.0	 3	    1.11000	    0.95000;
	129	 1	 0.0	 0.0	 0.0	 0.0	 1	    1.03000	    0.00000	 220.0	 3	    1.11000	    0.95000;
	130	 1	 0.0	 0.0	 0.0	 0.0	 1	    1.03000	    0.00000	 220.0	 3	    1.11000	    0.95000;
	131	 1	 0.0	 0.0	 0.0	 0.0	 1	    1.03000	    0.00000	 220.0	 3	    1.11000	    0.95000;
	132	 1	 0.0	 0.0	 0.0	 0.0	 1	    1.00000	    0.00000	 400.0	 3	    1.05000	    0.95000;
	133	 1	 0.0	 0.0	 0.0	 0.0	 1	    1.00000	    0.00000	 400.0	 3	    1.05000	    0.95000;
	134	 2	 0.0	 0.0	 0.0	 0.0	 1	    1.03000	    0.00000	 220.0	 3	    1.11000	    0.95000;
	135	 2	 10.42	 20.10	 0.0	 0.0	 1	    1.03000	    0.00000	 220.0	 3	    1.11000	    0.95000;
	136	 2	 6.95	 15.07	 0.0	 0.0	 1	    1.03000	    0.00000	 220.0	 3	    1.11000	    0.95000;
	137	 1	 0.0	 0.0	 0.0	 0.0	 1	    1.03000	    0.00000	 220.0	 3	    1.11000	    0.95000;
	138	 1	 0.0	 0.0	 0.0	 0.0	 1	    1.00000	    0.00000	 400.0	 3	    1.05000	    0.95000;
	139	 1	 0.0	 0.0	 0.0	 0.0	 1	    1.00000	    0.00000	 400.0	 3	    1.05000	    0.95000;
	140	 1	 0.0	 0.0	 0.0	 0.0	 1	    1.00000	    0.00000	 400.0	 3	    1.05000	    0.95000;
	141	 1	 0.0	 0.0	 0.0	 0.0	 1	    1.00000	    0.00000	 400.0	 3	    1.05000	    0.95000;
	142	 1	 0.0	 0.0	 0.0	 0.0	 1	    1.03000	    0.00000	 220.0	 3	    1.11000	    0.95000;
	143	 1	 0.0	 0.0	 0.0	 0.0	 1	    1.03000	    0.00000	 220.0	 3	    1.11000	    0.95000;
	144	 2	 21.15	 15.86	 0.0	 0.0	 1	    1.03000	    0.00000	 220.0	 3	    1.11000	    0.95000;
	145	 2	 47.29	 43.07	 0.0	 0.0	 1	    1.03000	    0.00000	 220.0	 3	    1.11000	    0.95000;
	146	 2	 32.44	 66.31	 0.0	 0.0	 1	    1.00000	    0.00000	 400.0	 3	    1.05000	    0.95000;
	147	 1	 0.0	 0.0	 0.0	 0.0	 1	    1.00000	    0.00000	 400.0	 3	    1.05000	    0.95000;
	148	 1	 0.0	 0.0	 0.0	 0.0	 1	    1.03000	    0.00000	 220.0	 3	    1.11000	    0.95000;
	149	 1	 0.0	 0.0	 0.0	 0.0	 1	    1.03000	    0.00000	 220.0	 3	    1.11000	    0.95000;
	150	 1	 0.0	 0.0	 0.0	 0.0	 1	    1.03000	    0.00000	 220.0	 3	    1.11000	    0.95000;
	151	 1	 0.0	 0.0	 0.0	 0.0	 1	    1.03000	    0.00000	 220.0	 3	    1.11000	    0.95000;
	152	 2	 0.0	 0.0	 0.0	 0.0	 1	    1.03000	    0.00000	 220.0	 3	    1.11000	    0.95000;
	153	 2	 0.0	 0.0	 0.0	 0.0	 1	    1.03000	    0.00000	 220.0	 3	    1.11000	    0.95000;
	154	 2	 9.04	 20.10	 0.0	 0.0	 1	    1.03000	    0.00000	 220.0	 4	    1.11000	    0.95000;
	155	 2	 9.27	 20.10	 0.0	 0.0	 1	    1.03000	    0.00000	 220.0	 4	    1.11000	    0.95000;
	156	 1	 0.0	 0.0	 0.0	 0.0	 1	    1.03000	    0.00000	 220.0	 4	    1.11000	    0.95000;
	157	 1	 0.0	 0.0	 0.0	 0.0	 1	    1.03000	    0.00000	 220.0	 4	    1.11000	    0.95000;
	158	 1	 0.0	 0.0	 0.0	 0.0	 1	    1.03000	    0.00000	 220.0	 4	    1.11000	    0.95000;
	159	 1	 0.0	 0.0	 0.0	 0.0	 1	    1.03000	    0.00000	 220.0	 4	    1.11000	    0.95000;
	160	 1	 0.0	 0.0	 0.0	 0.0	 1	    1.03000	    0.00000	 220.0	 4	    1.11000	    0.95000;
	161	 1	 0.0	 0.0	 0.0	 0.0	 1	    1.00000	    0.00000	 400.0	 4	    1.05000	    0.95000;
	162	 1	 0.0	 0.0	 0.0	 0.0	 1	    1.00000	    0.00000	 400.0	 4	    1.05000	    0.95000;
	163	 1	 0.0	 0.0	 0.0	 0.0	 1	    1.03000	    0.00000	 220.0	 4	    1.11000	    0.95000;
	164	 1	 0.0	 0.0	 0.0	 0.0	 1	    1.03000	    0.00000	 220.0	 4	    1.11000	    0.95000;
	165	 1	 0.0	 0.0	 0.0	 0.0	 1	    1.03000	    0.00000	 220.0	 4	    1.11000	    0.95000;
	166	 1	 0.0	 0.0	 0.0	 0.0	 1	    1.03000	    0.00000	 220.0	 4	    1.11000	    0.95000;
	167	 1	 0.0	 0.0	 0.0	 0.0	 1	    1.03000	    0.00000	 220.0	 4	    1.11000	    0.95000;
	168	 1	 0.0	 0.0	 0.0	 0.0	 1	    1.03000	    0.00000	 220.0	 4	    1.11000	    0.95000;
	169	 2	 0.0	 0.0	 0.0	 0.0	 1	    1.03000	    0.00000	 220.0	 4	    1.11000	    0.95000;
	170	 2	 0.0	 0.0	 0.0	 0.0	 1	    1.03000	    0.00000	 220.0	 4	    1.11000	    0.95000;
	171	 1	 0.0	 0.0	 0.0	 0.0	 1	    1.03000	    0.00000	 220.0	 4	    1.11000	    0.95000;
	172	 2	 13.91	 30.14	 0.0	 0.0	 1	    1.03000	    0.00000	 220.0	 4	    1.11000	    0.95000;
	173	 2	 10.83	 2.43	 0.0	 0.0	 1	    1.03000	    0.00000	 220.0	 4	    1.11000	    0.95000;
	174	 2	 13.91	 30.14	 0.0	 0.0	 1	    1.00000	    0.00000	 400.0	 4	    1.05000	    0.95000;
	175	 2	 27.80	 60.29	 0.0	 0.0	 1	    1.00000	    0.00000	 400.0	 4	    1.05000	    0.95000;
	176	 1	 0.0	 0.0	 0.0	 0.0	 1	    1.03000	    0.00000	 220.0	 4	    1.11000	    0.95000;
	177	 1	 0.0	 0.0	 0.0	 0.0	 1	    1.03000	    0.00000	 220.0	 4	    1.11000	    0.95000;
	178	 1	 0.0	 0.0	 0.0	 0.0	 1	    1.03000	    0.00000	 220.0	 4	    1.11000	    0.95000;
	179	 1	 0.0	 0.0	 0.0	 0.0	 1	    1.03000	    0.00000	 220.0	 4	    1.11000	    0.95000;
	180	 2	 30.12	 64.30	 0.0	 0.0	 1	    1.03000	    0.00000	 220.0	 4	    1.11000	    0.95000;
	181	 2	 30.12	 64.30	 0.0	 0.0	 1	    1.03000	    0.00000	 220.0	 4	    1.11000	    0.95000;
	182	 2	 30.12	 64.51	 0.0	 0.0	 1	    1.03000	    0.00000	 220.0	 4	    1.11000	    0.95000;
	183	 2	 30.12	 64.51	 0.0	 0.0	 1	    1.00000	    0.00000	 400.0	 4	    1.05000	    0.95000;
	184	 1	 0.0	 0.0	 0.0	 0.0	 1	    1.00000	    0.00000	 400.0	 4	    1.05000	    0.95000;
	185	 1	 0.0	 0.0	 0.0	 0.0	 1	    1.03000	    0.00000	 220.0	 4	    1.11000	    0.95000;
	186	 1	 0.0	 0.0	 0.0	 0.0	 1	    1.03000	    0.00000	 220.0	 4	    1.11000	    0.95000;
	187	 1	 0.0	 0.0	 0.0	 0.0	 1	    1.00000	    0.00000	 400.0	 4	    1.05000	    0.95000;
	188	 1	 0.0	 0.0	 0.0	 0.0	 1	    1.00000	    0.00000	 400.0	 4	    1.05000	    0.95000;
	189	 1	 0.0	 0.0	 0.0	 0.0	 1	    1.00000	    0.00000	 400.0	 4	    1.05000	    0.95000;
	190	 1	 0.0	 0.0	 0.0	 0.0	 1	    1.00000	    0.00000	 400.0	 4	    1.05000	    0.95000;
	191	 2	 13.91	 30.14	 0.0	 0.0	 1	    1.03000	    0.00000	 220.0	 4	    1.11000	    0.95000;
	192	 2	 16.90	 30.65	 0.0	 0.0	 1	    1.03000	    0.00000	 220.0	 4	    1.11000	    0.95000;
	193	 2	 44.02	 64.30	 0.0	 0.0	 1	    1.00000	    0.00000	 400.0	 4	    1.05000	    0.95000;
	194	 1	 0.0	 0.0	 0.0	 0.0	 1	    1.03000	    0.00000	 220.0	 4	    1.11000	    0.95000;
	195	 1	 0.0	 0.0	 0.0	 0.0	 1	    1.03000	    0.00000	 220.0	 4	    1.11000	    0.95000;
	196	 1	 0.0	 0.0	 0.0	 0.0	 1	    1.03000	    0.00000	 220.0	 4	    1.11000	    0.95000;
	197	 1	 0.0	 0.0	 0.0	 0.0	 1	    1.03000	    0.00000	 220.0	 4	    1.11000	    0.95000;
	198	 1	 0.0	 0.0	 0.0	 0.0	 1	    1.03000	    0.00000	 220.0	 4	    1.11000	    0.95000;
	199	 1	 0.0	 0.0	 0.0	 0.0	 1	    1.03000	    0.00000	 220.0	 4	    1.11000	    0.95000;
	200	 1	 0.0	 0.0	 0.0	 0.0	 1	    1.00000	    0.00000	 400.0	 4	    1.05000	    0.95000;
...
];

%% generator data
%	bus	Pg	Qg	Qmax	Qmin	Vg	mBase	status	Pmax	Pmin
mpc.gen = [
	24	 146.0	 10.5	 140.0	 -119.0	 1.03	 235.3	 1	 237	 55.0; % NG
	25	 188.25	 0.0	 155.0	 -155.0	 1.03	 235.3	 1	 309	 67.5; % NG
	37	 296.0	 0.0	 236.0	 -236.0	 1.03	 426.0	 1	 472	 120.0; % NG
	37	 200.0	 25.0	 190.0	 -140.0	 1.03	 426.0	 1	 280	 120.0; % NG
	38	 191.0	 29.5	 190.0	 -131.0	 1.03	 426.0	 1	 262	 120.0; % COW
	38	 540.0	 0.0	 480.0	 -480.0	 1.03	 426.0	 1	 960	 120.0; % COW
	39	 223.5	 13.0	 190.0	 -164.0	 1.03	 426.0	 1	 327	 120.0; % COW
	40	 200.5	 24.5	 190.0	 -141.0	 1.0	 426.0	 1	 281	 120.0; % NG
	40	 226.0	 12.0	 190.0	 -166.0	 1.0	 426.0	 1	 332	 120.0; % NG
	40	 266.0	 0.0	 206.0	 -206.0	 1.0	 426.0	 1	 412	 120.0; % NG
	41	 265.0	 0.0	 205.0	 -205.0	 1.0	 426.0	 1	 410	 120.0; % COW
	41	 594.5	 0.0	 535.0	 -535.0	 1.0	 426.0	 1	 1069	 120.0; % COW
	41	 266.5	 0.0	 207.0	 -207.0	 1.0	 426.0	 1	 413	 120.0; % NG
	57	 404.5	 0.0	 377.0	 -377.0	 1.03	 235.0	 1	 754	 55.0; % COW
	57	 135.25	 24.0	 152.0	 -104.0	 1.03	 235.0	 1	 208	 62.5; % NG
	58	 153.25	 13.5	 149.0	 -122.0	 1.03	 235.0	 1	 244	 62.5; % NG
	58	 0.0	 0.0	 149.0	 -76.0	 1.03	 235.0	 0	 152	 60.0; % NG
	58	 254.0	 0.0	 227.0	 -227.0	 1.03	 235.0	 1	 453	 55.0; % NG
	59	 198.5	 0.0	 171.0	 -171.0	 1.03	 235.0	 1	 342	 55.0; % NG
	60	 550.75	 0.0	 487.0	 -487.0	 1.0	 588.0	 1	 974	 127.5; % COW
	61	 364.5	 23.0	 348.0	 -302.0	 1.0	 588.0	 1	 604	 125.0; % COW
	70	 161.25	 0.0	 129.0	 -129.0	 1.03	 235.0	 1	 258	 64.5; % NG
	71	 181.25	 0.0	 149.0	 -149.0	 1.03	 235.0	 1	 298	 64.5; % NG
	71	 0.0	 0.0	 99.0	 -77.0	 1.03	 235.0	 0	 154	 64.5; % COW
	72	 0.0	 0.0	 105.0	 -11.0	 1.0	 235.0	 0	 2	 129.0; % NG
	72	 206.75	 0.0	 175.0	 -175.0	 1.0	 235.0	 1	 349	 64.5; % NG
	73	 218.75	 0.0	 187.0	 -187.0	 1.0	 235.0	 1	 373	 64.5; % NG
	73	 186.25	 0.0	 154.0	 -154.0	 1.0	 235.0	 1	 308	 64.5; % NG
	74	 66.0	 0.0	 66.0	 -66.0	 1.03	 120.0	 1	 132	 0.0; % NG
	94	 140.75	 10.5	 131.0	 -110.0	 1.03	 270.6	 1	 219	 62.5; % NG
	94	 134.0	 16.0	 131.0	 -99.0	 1.03	 270.6	 1	 198	 70.0; % NG
	95	 117.5	 23.0	 131.0	 -85.0	 1.03	 270.6	 1	 170	 65.0; % NG
	95	 145.75	 8.0	 131.0	 -115.0	 1.03	 270.6	 1	 229	 62.5; % NG
	95	 115.5	 24.0	 131.0	 -83.0	 1.03	 270.6	 1	 166	 65.0; % NG
	98	 192.5	 37.5	 213.0	 -138.0	 1.0	 426.0	 1	 275	 110.0; % NG
	98	 471.5	 0.0	 417.0	 -417.0	 1.0	 435.3	 1	 833	 110.0; % COW
	115	 22.5	 0.0	 23.0	 -23.0	 1.03	 12.0	 1	 45	 0.0; % NG
	115	 15.5	 0.0	 16.0	 -16.0	 1.03	 6.0	 1	 31	 0.0; % PEL
	121	 0.0	 0.0	 120.0	 -61.0	 1.03	 270.6	 0	 122	 60.0; % NG
	122	 154.5	 0.0	 125.0	 -125.0	 1.03	 270.6	 1	 249	 60.0; % NG
	123	 146.0	 0.0	 129.0	 -129.0	 1.03	 150.0	 1	 257	 35.0; % NG
	124	 259.5	 0.0	 242.0	 -242.0	 1.03	 150.0	 1	 484	 35.0; % COW
	134	 0.0	 0.0	 176.0	 -176.0	 1.03	 150.0	 0	 351	 35.0; % COW
	135	 72.0	 8.2	 80.0	 -63.6	 1.03	 150.0	 1	 109	 35.0; % NG
	136	 116.5	 0.0	 97.0	 -97.0	 1.03	 117.5	 1	 193	 40.0; % NG
	144	 135.75	 16.5	 135.0	 -102.0	 1.03	 270.6	 1	 204	 67.5; % NG
	145	 132.75	 18.0	 135.0	 -99.0	 1.03	 270.6	 1	 198	 67.5; % NG
	145	 288.75	 0.0	 255.0	 -255.0	 1.03	 270.6	 1	 510	 67.5; % NG
	146	 143.25	 15.0	 140.0	 -110.0	 1.0	 270.6	 1	 219	 67.5; % NG
	146	 150.75	 10.0	 137.0	 -117.0	 1.0	 270.6	 1	 234	 67.5; % NG
	152	 0.0	 0.0	 78.0	 -78.0	 1.03	 150.0	 0	 155	 -135.0; % NG
	152	 0.0	 0.0	 72.0	 -29.0	 1.03	 150.0	 0	 51	 -135.0; % NG
	153	 0.0	 0.0	 72.0	 -42.0	 1.03	 150.0	 0	 84	 -135.0; % NG
	153	 0.0	 0.0	 72.0	 -29.0	 1.03	 150.0	 0	 52	 -135.0; % NG
	154	 270.0	 0.0	 247.0	 -247.0	 1.03	 150.0	 1	 493	 47.0; % COW
	155	 160.5	 0.0	 137.0	 -137.0	 1.03	 150.0	 1	 274	 47.0; % NG
	155	 0.0	 0.0	 108.0	 -108.0	 1.03	 150.0	 0	 216	 47.0; % NG
	169	 0.0	 0.0	 30.0	 -30.0	 1.03	 51.4	 0	 59	 20.0; % NG
	170	 0.0	 0.0	 90.0	 -72.0	 1.03	 150.0	 0	 143	 40.0; % NG
	170	 0.0	 0.0	 43.0	 -43.0	 1.03	 51.4	 0	 86	 22.5; % NG
	172	 282.0	 0.0	 257.0	 -257.0	 1.03	 252.4	 1	 514	 50.0; % COW
	172	 0.0	 0.0	 111.0	 -21.0	 1.03	 237.5	 0	 5	 135.0; % COW
	173	 0.0	 0.0	 111.0	 -35.0	 1.03	 237.5	 0	 70	 67.5; % NG
	173	 0.0	 0.0	 102.0	 -84.0	 1.03	 252.4	 0	 168	 45.0; % NG
	174	 119.0	 0.0	 153.6	 -153.6	 1.0	 252.4	 1	 193	 45.0; % NG
	175	 125.0	 0.0	 103.0	 -103.0	 1.0	 252.4	 1	 205	 45.0; % NG
	175	 164.5	 0.0	 140.0	 -140.0	 1.0	 252.4	 1	 279	 50.0; % COW
	180	 104.5	 21.5	 127.0	 -84.0	 1.03	 287.3	 1	 157	 52.0; % NG
	180	 146.5	 3.0	 127.0	 -121.0	 1.03	 287.3	 1	 241	 52.0; % NG
	181	 234.5	 0.0	 205.0	 -205.0	 1.03	 238.4	 1	 409	 60.0; % COW
	181	 118.0	 17.5	 127.0	 -92.0	 1.03	 287.3	 1	 184	 52.0; % NG
	182	 114.5	 27.0	 145.0	 -91.0	 1.03	 263.9	 1	 182	 47.0; % NG
	182	 92.0	 38.0	 145.0	 -69.0	 1.03	 263.9	 1	 137	 47.0; % NG
	183	 117.0	 8.0	 103.0	 -87.0	 1.0	 238.4	 1	 174	 60.0; % NG
	183	 173.0	 0.0	 143.0	 -143.0	 1.0	 238.4	 1	 286	 60.0; % COW
	191	 228.0	 0.0	 191.0	 -191.0	 1.03	 233.2	 1	 381	 75.0; % NG
	192	 183.5	 0.0	 159.6	 -159.6	 1.03	 233.2	 1	 292	 75.0; % COW
	192	 0.0	 0.0	 104.0	 -40.0	 1.03	 233.2	 0	 79	 72.5; % NG
	192	 0.0	 0.0	 104.0	 -30.0	 1.03	 233.2	 0	 59	 145.0; % NG
	193	 337.5	 4.0	 294.0	 -286.0	 1.0	 464.0	 1	 571	 104.0; % COW
	208	 176.5	 0.0	 158.0	 -158.0	 1.03	 218.3	 1	 315	 38.0; % NG
	240	 123.5	 0.0	 224.0	 -224.0	 1.0	 209.0	 1	 447	 -200.0; % NG
	240	 -49.5	 21.5	 105.0	 -62.0	 1.0	 209.0	 1	 101	 -200.0; % NG
	240	 0.0	 0.0	 160.0	 -100.0	 1.0	 209.0	 0	 45	 -200.0; % NG
	241	 -10.5	 30.0	 160.0	 -100.0	 1.0	 209.0	 1	 179	 -200.0; % NG
	244	 120.625	 3.5	 100.0	 -93.0	 1.03	 177.1	 1	 185	 56.25; % NG
	254	 30.25	 0.0	 33.6	 -33.6	 1.035	 78.8	 1	 49	 11.5; % NG
	254	 59.25	 0.0	 53.0	 -53.0	 1.035	 68.8	 1	 106	 12.5; % NG
	254	 26.75	 0.0	 33.6	 -33.6	 1.035	 68.8	 1	 41	 12.5; % NG
	254	 42.25	 0.0	 41.0	 -41.0	 1.035	 27.6	 1	 81	 3.5; % PEL
	267	 49.1125	 0.0	 49.0	 -49.0	 1.035	 0.7	 1	 98	 0.225; % PEL
	268	 29.1125	 0.0	 29.0	 -29.0	 1.035	 0.7	 1	 58	 0.225; % PEL
	278	 0.0	 0.0	 85.0	 -85.0	 1.035	 10.3	 0	 170	 2.925; % NG
	279	 0.0	 0.0	 5.0	 0.0	 1.035	 10.3	 0	 0	 5.85; % NG
	295	 21.75	 0.0	 22.0	 -22.0	 1.035	 5.0	 1	 43	 0.5; % NG
	295	 39.75	 0.0	 40.0	 -40.0	 1.035	 5.0	 1	 79	 0.5; % PEL
	295	 42.75	 0.0	 43.0	 -43.0	 1.035	 5.0	 1	 85	 0.5; % NG
	295	 49.75	 0.0	 50.0	 -50.0	 1.035	 5.0	 1	 99	 0.5; % PEL
	310	 235.0	 0.0	 304.8	 -304.8	 1.035	 426.0	 1	 350	 120.0; % NG
	316	 0.0	 0.0	 21.0	 -21.0	 1.035	 4.0	 0	 42	 0.5; % PEL
	316	 0.0	 0.0	 11.0	 -11.0	 1.035	 4.0	 0	 22	 0.5; % NG
	376	 113.85	 0.0	 113.0	 -113.0	 1.035	 8.4	 1	 225	 2.7; % NG
	379	 20.575	 0.0	 21.0	 -21.0	 1.035	 0.9	 1	 41	 0.15; % NG
	379	 13.075	 0.0	 13.0	 -13.0	 1.035	 0.9	 1	 26	 0.15; % PEL
	379	 49.075	 0.0	 49.0	 -49.0	 1.035	 0.9	 1	 98	 0.15; % NG
	383	 26.25	 0.0	 24.0	 -24.0	 1.035	 31.3	 1	 47	 5.5; % PEL
	383	 33.25	 0.0	 31.0	 -31.0	 1.035	 39.0	 1	 61	 5.5; % NG
	383	 46.25	 0.0	 44.0	 -44.0	 1.035	 40.6	 1	 88	 4.5; % NG
	384	 72.0	 0.0	 67.0	 -67.0	 1.035	 68.8	 1	 134	 10.0; % NG
	384	 74.5	 0.0	 70.0	 -70.0	 1.035	 68.8	 1	 139	 10.0; % NG
	385	 52.0	 0.0	 50.0	 -50.0	 1.035	 48.5	 1	 99	 5.0; % NG
	385	 35.0	 0.0	 30.0	 -30.0	 1.035	 68.8	 1	 60	 10.0; % NG
	387	 51.25	 0.0	 45.0	 -45.0	 1.035	 68.8	 1	 90	 12.5; % NG
	387	 176.75	 0.0	 163.0	 -163.0	 1.035	 147.0	 1	 326	 27.5; % COW
	388	 167.75	 0.0	 162.0	 -162.0	 1.035	 68.8	 1	 323	 12.5; % NG
	399	 47.0	 0.0	 47.0	 -47.0	 1.035	 3.8	 1	 93	 1.0; % PEL
	433	 52.8375	 0.0	 53.0	 -53.0	 1.035	 1.9	 1	 105	 0.675; % PEL
	455	 210.25	 0.0	 207.0	 -207.0	 1.035	 68.8	 1	 413	 7.5; % NG
	456	 108.75	 0.0	 105.0	 -105.0	 1.035	 68.8	 1	 210	 7.5; % NG
	457	 46.25	 7.0	 57.0	 -43.0	 1.035	 68.8	 1	 85	 7.5; % PEL
	457	 115.75	 0.0	 115.0	 -115.0	 1.035	 87.5	 1	 230	 1.5; % NG
	458	 85.25	 0.0	 82.0	 -82.0	 1.035	 68.8	 1	 163	 7.5; % NG
	458	 35.75	 12.5	 57.0	 -32.0	 1.035	 68.8	 1	 64	 7.5; % PEL
	478	 108.5	 29.0	 137.0	 -79.0	 1.035	 235.3	 1	 157	 60.0; % NG
	478	 43.5	 0.0	 41.0	 -41.0	 1.035	 48.5	 1	 81	 6.0; % NG
	479	 125.5	 0.0	 123.0	 -123.0	 1.035	 48.5	 1	 246	 5.0; % NG
	482	 53.9	 0.0	 53.0	 -53.0	 1.035	 5.6	 1	 106	 1.8; % NG
	500	 41.0	 0.0	 41.0	 -41.0	 1.035	 0.4	 1	 82	 0.0; % PEL
	522	 89.25	 0.0	 89.0	 -89.0	 1.035	 8.4	 1	 177	 1.5; % PEL
	527	 42.1975	 0.0	 42.0	 -42.0	 1.035	 4.6	 1	 83	 1.395; % NG
	532	 79.25	 0.0	 79.0	 -79.0	 1.035	 6.5	 1	 158	 0.5; % NG
	532	 19.25	 0.0	 19.0	 -19.0	 1.035	 6.5	 1	 38	 0.5; % PEL
	532	 21.25	 0.0	 21.0	 -21.0	 1.035	 6.5	 1	 42	 0.5; % NG
	543	 23.6075	 0.0	 23.0	 -23.0	 1.035	 4.1	 1	 46	 1.215; % PEL
	572	 0.0	 0.0	 2.0	 -1.0	 1.035	 4.6	 0	 1	 2.88; % PEL
	597	 33.25	 0.0	 33.0	 -33.0	 1.035	 1.9	 1	 66	 0.5; % PEL
	597	 0.0	 0.0	 82.0	 -82.0	 1.035	 1.9	 0	 163	 0.5; % NG
	603	 92.25	 0.0	 92.0	 -92.0	 1.035	 5.6	 1	 183	 1.5; % NG
	670	 49.75	 0.0	 41.0	 -41.0	 1.035	 62.5	 1	 81	 18.5; % PEL
	670	 28.0	 0.0	 26.0	 -26.0	 1.035	 37.5	 1	 51	 5.0; % PEL
	670	 66.0	 15.5	 85.0	 -54.0	 1.035	 150.0	 1	 107	 25.0; % COW
	670	 48.5	 24.5	 85.0	 -36.0	 1.035	 150.0	 1	 72	 25.0; % NG
	671	 35.0	 0.0	 33.0	 -33.0	 1.035	 37.5	 1	 65	 5.0; % PEL
	671	 43.5	 0.0	 41.0	 -41.0	 1.035	 37.5	 1	 82	 5.0; % NG
	671	 24.5	 1.1	 25.0	 -22.8	 1.035	 37.5	 1	 44	 5.0; % PEL
	671	 73.5	 14.0	 85.0	 -57.0	 1.035	 150.0	 1	 113	 34.0; % NG
	671	 52.5	 22.5	 85.0	 -40.0	 1.035	 150.0	 1	 80	 25.0; % COW
	692	 64.815	 0.0	 65.0	 -65.0	 1.035	 1.9	 1	 129	 0.63; % PEL
	694	 112.5	 0.0	 113.0	 -113.0	 1.035	 3.8	 1	 225	 0.0; % PEL
	700	 52.75	 0.0	 51.0	 -51.0	 1.035	 37.5	 1	 101	 4.5; % NG
	700	 35.75	 0.0	 34.0	 -34.0	 1.035	 37.5	 1	 67	 4.5; % PEL
	701	 42.75	 0.0	 41.0	 -41.0	 1.035	 37.5	 1	 81	 4.5; % NG
	701	 51.75	 0.0	 50.0	 -50.0	 1.035	 37.5	 1	 99	 4.5; % PEL
	701	 79.25	 0.0	 77.0	 -77.0	 1.035	 37.5	 1	 154	 4.5; % PEL
	701	 64.5	 4.0	 65.0	 -57.0	 1.035	 121.3	 1	 114	 15.0; % PEL
	702	 29.25	 0.0	 27.0	 -27.0	 1.035	 37.5	 1	 54	 4.5; % PEL
	702	 92.25	 0.0	 90.0	 -90.0	 1.035	 37.5	 1	 180	 4.5; % NG
	702	 28.25	 0.0	 26.0	 -26.0	 1.035	 31.5	 1	 52	 4.5; % PEL
	735	 76.25	 0.0	 76.0	 -76.0	 1.035	 5.3	 1	 152	 0.5; % COW
	735	 24.25	 0.0	 24.0	 -24.0	 1.035	 2.0	 1	 48	 0.5; % NG
	752	 120.4	 0.0	 120.0	 -120.0	 1.035	 5.8	 1	 239	 1.8; % NG
	766	 40.0	 0.0	 40.0	 -40.0	 1.035	 5.8	 1	 80	 0.0; % PEL
	775	 51.0	 0.0	 51.0	 -51.0	 1.035	 4.0	 1	 102	 0.0; % NG
	798	 82.0	 0.0	 82.0	 -82.0	 1.035	 65.0	 1	 164	 0.0; % NG
	798	 34.0	 0.0	 34.0	 -34.0	 1.035	 65.0	 1	 68	 0.0; % NG
	801	 0.0	 0.0	 4.0	 -4.0	 1.035	 12.4	 0	 7	 0.0; % PEL
	808	 21.5	 0.0	 22.0	 -22.0	 1.035	 4.7	 1	 43	 0.0; % PEL
	809	 16.0	 0.0	 16.0	 -16.0	 1.035	 5.8	 1	 32	 0.0; % NG
	846	 161.0	 10.0	 149.0	 -129.0	 1.035	 235.0	 1	 257	 65.0; % NG
	847	 146.5	 15.0	 149.0	 -119.0	 1.035	 235.0	 1	 238	 55.0; % NG
	854	 58.5	 0.0	 59.0	 -59.0	 1.035	 3.0	 1	 117	 0.0; % PEL
	860	 46.0	 0.0	 46.0	 -46.0	 1.035	 12.4	 1	 92	 0.0; % PEL
	870	 106.5	 0.0	 90.0	 -90.0	 1.035	 167.6	 1	 180	 33.0; % COW
	870	 63.5	 0.0	 55.0	 -55.0	 1.035	 71.6	 1	 110	 17.0; % NG
	876	 58.5	 0.0	 59.0	 -59.0	 1.035	 8.3	 1	 117	 0.0; % PEL
	890	 109.5	 0.0	 110.0	 -110.0	 1.035	 5.6	 1	 219	 0.0; % NG
	893	 0.0	 0.0	 30.0	 -30.0	 1.035	 3.0	 0	 59	 0.0; % NG
	908	 32.0	 0.0	 32.0	 -32.0	 1.035	 3.0	 1	 64	 0.0; % PEL
	913	 51.5	 0.0	 52.0	 -52.0	 1.035	 0.0	 1	 103	 0.0; % PEL
	918	 0.0	 0.0	 34.0	 -34.0	 1.035	 1.0	 0	 68	 0.0; % PEL
	929	 0.0	 0.0	 10.0	 -10.0	 1.035	 2.1	 0	 19	 0.67; % PEL
	934	 185.25	 0.0	 153.0	 -153.0	 1.035	 235.0	 1	 306	 64.5; % COW
	936	 95.0	 0.0	 95.0	 -95.0	 1.035	 36.8	 1	 190	 0.0; % PEL
	939	 0.0	 0.0	 8.0	 -8.0	 1.035	 2.8	 0	 15	 0.89; % PEL
	959	 62.25	 0.0	 50.0	 -50.0	 1.035	 100.8	 1	 100	 24.5; % NG
	965	 0.0	 0.0	 129.0	 -129.0	 1.035	 1.7	 0	 257	 0.0; % COW
	980	 54.5	 0.0	 55.0	 -55.0	 1.035	 9.5	 1	 109	 0.0; % NG
	982	 0.0	 0.0	 4.0	 -4.0	 1.035	 1.6	 0	 7	 0.455; % PEL
	984	 46.25	 0.0	 46.0	 -46.0	 1.035	 5.9	 1	 92	 0.5; % PEL
	989	 140.5	 0.0	 141.0	 -141.0	 1.035	 10.9	 1	 281	 0.0; % NG
	993	 43.25	 0.0	 42.0	 -42.0	 1.035	 52.0	 1	 84	 2.5; % PEL
	993	 0.0	 0.0	 23.0	 -20.0	 1.035	 52.0	 0	 40	 2.5; % NG
	993	 0.0	 0.0	 38.0	 -38.0	 1.035	 24.5	 0	 75	 -32.0; % NG
	993	 0.0	 0.0	 61.0	 -61.0	 1.035	 24.5	 0	 122	 -32.0; % NG
	1008	 0.0	 0.0	 26.0	 -26.0	 1.035	 69.0	 0	 51	 0.0; % NG
	1008	 102.5	 0.0	 80.0	 -80.0	 1.035	 57.6	 1	 159	 46.0; % NG
	1009	 103.0	 0.0	 82.0	 -82.0	 1.035	 57.6	 1	 164	 42.0; % PEL
	1009	 0.0	 0.0	 10.0	 -4.0	 1.035	 40.0	 0	 8	 0.0; % PEL
	1021	 18.5	 0.0	 19.0	 -19.0	 1.035	 3.3	 1	 37	 0.0; % PEL
	1049	 44.0575	 0.0	 44.0	 -44.0	 1.035	 3.8	 1	 87	 1.115; % PEL
...
];

%% generator cost data
%	2	startup	shutdown	n	c(n-1)	...	c0
mpc.gencost = [
	2	 0.0	 0.0	 3	   0.000000	 158.610000	   0.000000; % NG
	2	 0.0	 0.0	 3	   0.000000	 158.610000	   0.000000; % NG
	2	 0.0	 0.0	 3	   0.000000	 107.030000	   0.000000; % NG
	2	 0.0	 0.0	 3	   0.000000	 107.030000	   0.000000; % NG
	2	 0.0	 0.0	 3	   0.000000	 107.030000	   0.000000; % COW
	2	 0.0	 0.0	 3	   0.000000	 107.030000	   0.000000; % COW
	2	 0.0	 0.0	 3	   0.000000	 107.030000	   0.000000; % COW
	2	 0.0	 0.0	 3	   0.000000	 107.030000	   0.000000; % NG
	2	 0.0	 0.0	 3	   0.000000	 107.030000	   0.000000; % NG
	2	 0.0	 0.0	 3	   0.000000	 107.030000	   0.000000; % NG
	2	 0.0	 0.0	 3	   0.000000	 107.030000	   0.000000; % COW
	2	 0.0	 0.0	 3	   0.000000	 107.030000	   0.000000; % COW
	2	 0.0	 0.0	 3	   0.000000	 107.030000	   0.000000; % NG
	2	 0.0	 0.0	 3	   0.000000	 143.520000	   0.000000; % COW
	2	 0.0	 0.0	 3	   0.000000	 143.520000	   0.000000; % NG
	2	 0.0	 0.0	 3	   0.000000	 143.520000	   0.000000; % NG
	2	 0.0	 0.0	 3	   0.000000	 143.520000	   0.000000; % NG
	2	 0.0	 0.0	 3	   0.000000	 143.520000	   0.000000; % NG
	2	 0.0	 0.0	 3	   0.000000	 143.520000	   0.000000; % NG
	2	 0.0	 0.0	 3	   0.000000	 143.520000	   0.000000; % COW
	2	 0.0	 0.0	 3	   0.000000	 143.520000	   0.000000; % COW
	2	 0.0	 0.0	 3	   0.000000	 148.160000	   0.000000; % NG
	2	 0.0	 0.0	 3	   0.000000	 148.160000	   0.000000; % NG
	2	 0.0	 0.0	 3	   0.000000	 148.160000	   0.000000; % COW
	2	 0.0	 0.0	 3	   0.000000	 148.160000	   0.000000; % NG
	2	 0.0	 0.0	 3	   0.000000	 148.160000	   0.000000; % NG
	2	 0.0	 0.0	 3	   0.000000	 148.160000	   0.000000; % NG
	2	 0.0	 0.0	 3	   0.000000	 148.160000	   0.000000; % NG
	2	 0.0	 0.0	 3	   0.000000	   0.000000	   0.000000; % NG
	2	 0.0	 0.0	 3	   0.000000	 134.040000	   0.000000; % NG
	2	 0.0	 0.0	 3	   0.000000	 134.040000	   0.000000; % NG
	2	 0.0	 0.0	 3	   0.000000	 134.040000	   0.000000; % NG
	2	 0.0	 0.0	 3	   0.000000	 134.040000	   0.000000; % NG
	2	 0.0	 0.0	 3	   0.000000	 134.040000	   0.000000; % NG
	2	 0.0	 0.0	 3	   0.000000	 126.620000	   0.000000; % NG
	2	 0.0	 0.0	 3	   0.000000	 126.620000	   0.000000; % COW
	2	 0.0	 0.0	 3	   0.000000	   0.000000	   0.000000; % NG
	2	 0.0	 0.0	 3	   0.000000	   0.000000	   0.000000; % PEL
	2	 0.0	 0.0	 3	   0.000000	 130.490000	   0.000000; % NG
	2	 0.0	 0.0	 3	   0.000000	 130.490000	   0.000000; % NG
	2	 0.0	 0.0	 3	   0.000000	 132.330000	   0.000000; % NG
	2	 0.0	 0.0	 3	   0.000000	 132.330000	   0.000000; % COW
	2	 0.0	 0.0	 3	   0.000000	 136.590000	   0.000000; % COW
	2	 0.0	 0.0	 3	   0.000000	 136.590000	   0.000000; % NG
	2	 0.0	 0.0	 3	   0.000000	 139.960000	   0.000000; % NG
	2	 0.0	 0.0	 3	   0.000000	 128.210000	   0.000000; % NG
	2	 0.0	 0.0	 3	   0.000000	 128.210000	   0.000000; % NG
	2	 0.0	 0.0	 3	   0.000000	 128.210000	   0.000000; % NG
	2	 0.0	 0.0	 3	   0.000000	 128.210000	   0.000000; % NG
	2	 0.0	 0.0	 3	   0.000000	 128.210000	   0.000000; % NG
	2	 0.0	 0.0	 3	   0.000000	 137.400000	   0.000000; % NG
	2	 0.0	 0.0	 3	   0.000000	 137.400000	   0.000000; % NG
	2	 0.0	 0.0	 3	   0.000000	 137.400000	   0.000000; % NG
	2	 0.0	 0.0	 3	   0.000000	 137.400000	   0.000000; % NG
	2	 0.0	 0.0	 3	   0.000000	 129.990000	   0.000000; % COW
	2	 0.0	 0.0	 3	   0.000000	 129.990000	   0.000000; % NG
	2	 0.0	 0.0	 3	   0.000000	 129.990000	   0.000000; % NG
	2	 0.0	 0.0	 3	   0.000000	 135.600000	   0.000000; % NG
	2	 0.0	 0.0	 3	   0.000000	 135.600000	   0.000000; % NG
	2	 0.0	 0.0	 3	   0.000000	 135.600000	   0.000000; % NG
	2	 0.0	 0.0	 3	   0.000000	 163.160000	   0.000000; % COW
	2	 0.0	 0.0	 3	   0.000000	 163.160000	   0.000000; % COW
	2	 0.0	 0.0	 3	   0.000000	 163.160000	   0.000000; % NG
	2	 0.0	 0.0	 3	   0.000000	 163.160000	   0.000000; % NG
	2	 0.0	 0.0	 3	   0.000000	 163.160000	   0.000000; % NG
	2	 0.0	 0.0	 3	   0.000000	 163.160000	   0.000000; % NG
	2	 0.0	 0.0	 3	   0.000000	 163.160000	   0.000000; % COW
	2	 0.0	 0.0	 3	   0.000000	 139.010000	   0.000000; % NG
	2	 0.0	 0.0	 3	   0.000000	 139.010000	   0.000000; % NG
	2	 0.0	 0.0	 3	   0.000000	 139.010000	   0.000000; % COW
	2	 0.0	 0.0	 3	   0.000000	 139.010000	   0.000000; % NG
	2	 0.0	 0.0	 3	   0.000000	 139.010000	   0.000000; % NG
	2	 0.0	 0.0	 3	   0.000000	 139.010000	   0.000000; % NG
	2	 0.0	 0.0	 3	   0.000000	 139.010000	   0.000000; % NG
	2	 0.0	 0.0	 3	   0.000000	 139.010000	   0.000000; % COW
	2	 0.0	 0.0	 3	   0.000000	 125.480000	   0.000000; % NG
	2	 0.0	 0.0	 3	   0.000000	 125.480000	   0.000000; % COW
	2	 0.0	 0.0	 3	   0.000000	 125.480000	   0.000000; % NG
	2	 0.0	 0.0	 3	   0.000000	 125.480000	   0.000000; % NG
	2	 0.0	 0.0	 3	   0.000000	 125.480000	   0.000000; % COW
	2	 0.0	 0.0	 3	   0.000000	 137.400000	   0.000000; % NG
	2	 0.0	 0.0	 3	   0.000000	 137.400000	   0.000000; % NG
	2	 0.0	 0.0	 3	   0.000000	 137.400000	   0.000000; % NG
	2	 0.0	 0.0	 3	   0.000000	 137.400000	   0.000000; % NG
	2	 0.0	 0.0	 3	   0.000000	 137.400000	   0.000000; % NG
	2	 0.0	 0.0	 3	   0.000000	   0.000000	   0.000000; % NG
	2	 0.0	 0.0	 3	   0.000000	   0.000000	   0.000000; % NG
	2	 0.0	 0.0	 3	   0.000000	   0.000000	   0.000000; % NG
	2	 0.0	 0.0	 3	   0.000000	   0.000000	   0.000000; % NG
	2	 0.0	 0.0	 3	   0.000000	   0.000000	   0.000000; % PEL
	2	 0.0	 0.0	 3	   0.000000	   0.000000	   0.000000; % PEL
	2	 0.0	 0.0	 3	   0.000000	   0.000000	   0.000000; % PEL
	2	 0.0	 0.0	 3	   0.000000	   0.000000	   0.000000; % NG
	2	 0.0	 0.0	 3	   0.000000	   0.000000	   0.000000; % NG
	2	 0.0	 0.0	 3	   0.000000	   0.000000	   0.000000; % NG
	2	 0.0	 0.0	 3	   0.000000	   0.000000	   0.000000; % PEL
	2	 0.0	 0.0	 3	   0.000000	   0.000000	   0.000000; % NG
	2	 0.0	 0.0	 3	   0.000000	   0.000000	   0.000000; % PEL
	2	 0.0	 0.0	 3	   0.000000	 107.030000	   0.000000; % NG
	2	 0.0	 0.0	 3	   0.000000	   0.000000	   0.000000; % PEL
	2	 0.0	 0.0	 3	   0.000000	   0.000000	   0.000000; % NG
	2	 0.0	 0.0	 3	   0.000000	   0.000000	   0.000000; % NG
	2	 0.0	 0.0	 3	   0.000000	   0.000000	   0.000000; % NG
	2	 0.0	 0.0	 3	   0.000000	   0.000000	   0.000000; % PEL
	2	 0.0	 0.0	 3	   0.000000	   0.000000	   0.000000; % NG
	2	 0.0	 0.0	 3	   0.000000	   0.000000	   0.000000; % PEL
	2	 0.0	 0.0	 3	   0.000000	   0.000000	   0.000000; % NG
	2	 0.0	 0.0	 3	   0.000000	   0.000000	   0.000000; % NG
	2	 0.0	 0.0	 3	   0.000000	   0.000000	   0.000000; % NG
	2	 0.0	 0.0	 3	   0.000000	   0.000000	   0.000000; % NG
	2	 0.0	 0.0	 3	   0.000000	   0.000000	   0.000000; % NG
	2	 0.0	 0.0	 3	   0.000000	   0.000000	   0.000000; % NG
	2	 0.0	 0.0	 3	   0.000000	   0.000000	   0.000000; % NG
	2	 0.0	 0.0	 3	   0.000000	   0.000000	   0.000000; % COW
	2	 0.0	 0.0	 3	   0.000000	   0.000000	   0.000000; % NG
	2	 0.0	 0.0	 3	   0.000000	   0.000000	   0.000000; % PEL
	2	 0.0	 0.0	 3	   0.000000	   0.000000	   0.000000; % PEL
	2	 0.0	 0.0	 3	   0.000000	   0.000000	   0.000000; % NG
	2	 0.0	 0.0	 3	   0.000000	   0.000000	   0.000000; % NG
	2	 0.0	 0.0	 3	   0.000000	   0.000000	   0.000000; % PEL
	2	 0.0	 0.0	 3	   0.000000	   0.000000	   0.000000; % NG
	2	 0.0	 0.0	 3	   0.000000	   0.000000	   0.000000; % NG
	2	 0.0	 0.0	 3	   0.000000	   0.000000	   0.000000; % PEL
	2	 0.0	 0.0	 3	   0.000000	 158.610000	   0.000000; % NG
	2	 0.0	 0.0	 3	   0.000000	 158.610000	   0.000000; % NG
	2	 0.0	 0.0	 3	   0.000000	 158.610000	   0.000000; % NG
	2	 0.0	 0.0	 3	   0.000000	   0.000000	   0.000000; % NG
	2	 0.0	 0.0	 3	   0.000000	   0.000000	   0.000000; % PEL
	2	 0.0	 0.0	 3	   0.000000	   0.000000	   0.000000; % PEL
	2	 0.0	 0.0	 3	   0.000000	   0.000000	   0.000000; % NG
	2	 0.0	 0.0	 3	   0.000000	   0.000000	   0.000000; % NG
	2	 0.0	 0.0	 3	   0.000000	   0.000000	   0.000000; % PEL
	2	 0.0	 0.0	 3	   0.000000	   0.000000	   0.000000; % NG
	2	 0.0	 0.0	 3	   0.000000	   0.000000	   0.000000; % PEL
	2	 0.0	 0.0	 3	   0.000000	   0.000000	   0.000000; % PEL
	2	 0.0	 0.0	 3	   0.000000	   0.000000	   0.000000; % PEL
	2	 0.0	 0.0	 3	   0.000000	   0.000000	   0.000000; % NG
	2	 0.0	 0.0	 3	   0.000000	   0.000000	   0.000000; % NG
	2	 0.0	 0.0	 3	   0.000000	   0.000000	   0.000000; % PEL
	2	 0.0	 0.0	 3	   0.000000	   0.000000	   0.000000; % PEL
	2	 0.0	 0.0	 3	   0.000000	   0.000000	   0.000000; % COW
	2	 0.0	 0.0	 3	   0.000000	   0.000000	   0.000000; % NG
	2	 0.0	 0.0	 3	   0.000000	   0.000000	   0.000000; % PEL
	2	 0.0	 0.0	 3	   0.000000	   0.000000	   0.000000; % NG
	2	 0.0	 0.0	 3	   0.000000	   0.000000	   0.000000; % PEL
	2	 0.0	 0.0	 3	   0.000000	   0.000000	   0.000000; % NG
	2	 0.0	 0.0	 3	   0.000000	   0.000000	   0.000000; % COW
	2	 0.0	 0.0	 3	   0.000000	   0.000000	   0.000000; % PEL
	2	 0.0	 0.0	 3	   0.000000	   0.000000	   0.000000; % PEL
	2	 0.0	 0.0	 3	   0.000000	   0.000000	   0.000000; % NG
	2	 0.0	 0.0	 3	   0.000000	   0.000000	   0.000000; % PEL
	2	 0.0	 0.0	 3	   0.000000	   0.000000	   0.000000; % NG
	2	 0.0	 0.0	 3	   0.000000	   0.000000	   0.000000; % PEL
	2	 0.0	 0.0	 3	   0.000000	   0.000000	   0.000000; % PEL
	2	 0.0	 0.0	 3	   0.000000	   0.000000	   0.000000; % PEL
	2	 0.0	 0.0	 3	   0.000000	   0.000000	   0.000000; % PEL
	2	 0.0	 0.0	 3	   0.000000	   0.000000	   0.000000; % NG
	2	 0.0	 0.0	 3	   0.000000	   0.000000	   0.000000; % PEL
	2	 0.0	 0.0	 3	   0.000000	   0.000000	   0.000000; % COW
	2	 0.0	 0.0	 3	   0.000000	   0.000000	   0.000000; % NG
	2	 0.0	 0.0	 3	   0.000000	   0.000000	   0.000000; % NG
	2	 0.0	 0.0	 3	   0.000000	   0.000000	   0.000000; % PEL
	2	 0.0	 0.0	 3	   0.000000	   0.000000	   0.000000; % NG
	2	 0.0	 0.0	 3	   0.000000	   0.000000	   0.000000; % NG
	2	 0.0	 0.0	 3	   0.000000	   0.000000	   0.000000; % NG
	2	 0.0	 0.0	 3	   0.000000	   0.000000	   0.000000; % PEL
	2	 0.0	 0.0	 3	   0.000000	   0.000000	   0.000000; % PEL
	2	 0.0	 0.0	 3	   0.000000	   0.000000	   0.000000; % NG
	2	 0.0	 0.0	 3	   0.000000	 143.520000	   0.000000; % NG
	2	 0.0	 0.0	 3	   0.000000	 143.520000	   0.000000; % NG
	2	 0.0	 0.0	 3	   0.000000	   0.000000	   0.000000; % PEL
	2	 0.0	 0.0	 3	   0.000000	   0.000000	   0.000000; % PEL
	2	 0.0	 0.0	 3	   0.000000	   0.000000	   0.000000; % COW
	2	 0.0	 0.0	 3	   0.000000	   0.000000	   0.000000; % NG
	2	 0.0	 0.0	 3	   0.000000	   0.000000	   0.000000; % PEL
	2	 0.0	 0.0	 3	   0.000000	   0.000000	   0.000000; % NG
	2	 0.0	 0.0	 3	   0.000000	   0.000000	   0.000000; % NG
	2	 0.0	 0.0	 3	   0.000000	   0.000000	   0.000000; % PEL
	2	 0.0	 0.0	 3	   0.000000	   0.000000	   0.000000; % PEL
	2	 0.0	 0.0	 3	   0.000000	   0.000000	   0.000000; % PEL
	2	 0.0	 0.0	 3	   0.000000	   0.000000	   0.000000; % PEL
	2	 0.0	 0.0	 3	   0.000000	 148.160000	   0.000000; % COW
	2	 0.0	 0.0	 3	   0.000000	   0.000000	   0.000000; % PEL
	2	 0.0	 0.0	 3	   0.000000	   0.000000	   0.000000; % PEL
	2	 0.0	 0.0	 3	   0.000000	   0.000000	   0.000000; % NG
	2	 0.0	 0.0	 3	   0.000000	   0.000000	   0.000000; % COW
	2	 0.0	 0.0	 3	   0.000000	   0.000000	   0.000000; % NG
	2	 0.0	 0.0	 3	   0.000000	   0.000000	   0.000000; % PEL
	2	 0.0	 0.0	 3	   0.000000	   0.000000	   0.000000; % PEL
	2	 0.0	 0.0	 3	   0.000000	   0.000000	   0.000000; % NG
	2	 0.0	 0.0	 3	   0.000000	   0.000000	   0.000000; % PEL
	2	 0.0	 0.0	 3	   0.000000	   0.000000	   0.000000; % NG
	2	 0.0	 0.0	 3	   0.000000	   0.000000	   0.000000; % NG
	2	 0.0	 0.0	 3	   0.000000	   0.000000	   0.000000; % NG
	2	 0.0	 0.0	 3	   0.000000	 157.000000	   0.000000; % NG
	2	 0.0	 0.0	 3	   0.000000	 157.000000	   0.000000; % NG
	2	 0.0	 0.0	 3	   0.000000	 157.000000	   0.000000; % PEL
	2	 0.0	 0.0	 3	   0.000000	 157.000000	   0.000000; % PEL
	2	 0.0	 0.0	 3	   0.000000	   0.000000	   0.000000; % PEL
	2	 0.0	 0.0	 3	   0.000000	   0.000000	   0.000000; % PEL
...
];

%% branch data
%	fbus	tbus	r	x	b	rateA	rateB	rateC	ratio	angle	status	angmin	angmax
mpc.branch = [
	9	 11	 0.00064	 0.0305	 0.0	 400.0	 400.0	 400.0	 1.10224	 0.0	 1	 -30.0	 30.0;
	13	 12	 0.00069	 0.03946	 0.0	 250.0	 250.0	 250.0	 0.9999	 0.0	 1	 -30.0	 30.0;
	21	 19	 0.00088	 0.05709	 0.0	 330.0	 330.0	 330.0	 0.9999	 0.0	 1	 -30.0	 30.0;
	36	 35	 0.0007	 0.03652	 0.0	 250.0	 250.0	 250.0	 0.9999	 0.0	 1	 -30.0	 30.0;
	37	 40	 0.00036	 0.02519	 0.0	 500.0	 500.0	 500.0	 1.0686	 0.0	 1	 -30.0	 30.0;
	38	 41	 0.00036	 0.02519	 0.0	 500.0	 500.0	 500.0	 1.08671	 0.0	 1	 -30.0	 30.0;
	55	 56	 0.00034	 0.02097	 0.0	 500.0	 500.0	 500.0	 1.0755	 0.0	 1	 -30.0	 30.0;
	59	 61	 0.00034	 0.02097	 0.0	 500.0	 500.0	 500.0	 1.05955	 0.0	 1	 -30.0	 30.0;
	70	 72	 0.00081	 0.03	 0.0	 400.0	 400.0	 400.0	 1.0876	 0.0	 1	 -30.0	 30.0;
	107	 109	 0.00075	 0.02445	 -0.00832	 330.0	 330.0	 330.0	 1.06467	 0.0	 1	 -30.0	 30.0;
	108	 110	 0.0004	 0.0253	 0.0	 500.0	 500.0	 500.0	 1.07013	 0.0	 1	 -30.0	 30.0;
	144	 147	 0.00053	 0.02875	 -0.016	 400.0	 400.0	 400.0	 1.07702	 0.0	 1	 -30.0	 30.0;
	173	 174	 0.00064	 0.0305	 0.0	 400.0	 400.0	 400.0	 1.06172	 0.0	 1	 -30.0	 30.0;
	182	 183	 0.00023	 0.023	 0.0	 500.0	 500.0	 500.0	 1.07426	 0.0	 1	 -30.0	 30.0;
	181	 184	 0.00023	 0.023	 0.0	 500.0	 500.0	 500.0	 1.07426	 0.0	 1	 -30.0	 30.0;
	188	 187	 0.00032	 0.04392	 0.0	 330.0	 330.0	 330.0	 0.9999	 0.0	 1	 -30.0	 30.0;
	191	 193	 0.0003	 0.02732	 0.0	 500.0	 500.0	 500.0	 1.10871	 0.0	 1	 -30.0	 30.0;
	198	 200	 0.00035	 0.02375	 0.0	 500.0	 500.0	 500.0	 1.07313	 0.0	 1	 -30.0	 30.0;
	212	 213	 0.00051	 0.0275	 0.0	 400.0	 400.0	 400.0	 1.10394	 0.0	 1	 -30.0	 30.0;
	217	 215	 0.00084	 0.06858	 0.0	 250.0	 250.0	 250.0	 0.9999	 0.0	 1	 -30.0	 30.0;
	220	 222	 0.00033	 0.02711	 0.0	 500.0	 500.0	 500.0	 1.08613	 0.0	 1	 -30.0	 30.0;
	224	 222	 0.00032	 0.0464	 0.0	 330.0	 330.0	 330.0	 0.9999	 0.0	 1	 -30.0	 30.0;
	231	 229	 0.00113	 0.05647	 0.0	 330.0	 330.0	 330.0	 0.9999	 0.0	 1	 -30.0	 30.0;
	228	 230	 0.00075	 0.02469	 -0.008	 330.0	 330.0	 330.0	 1.04544	 0.0	 1	 -30.0	 30.0;
	3010	 183	 0.00029	 0.00317	 0.09184	 773.0	 773.0	 773.0	 0.0	 0.0	 1	 -30.0	 30.0;
	3010	 184	 0.0003	 0.00326	 0.09536	 771.0	 771.0	 771.0	 0.0	 0.0	 1	 -30.0	 30.0;
	244	 84	 0.01475	 0.08595	 0.13036	 315.0	 315.0	 315.0	 0.0	 0.0	 1	 -30.0	 30.0;
	3007	 92	 0.01244	 0.06959	 0.1181	 309.0	 309.0	 309.0	 0.0	 0.0	 1	 -30.0	 30.0;
	3007	 122	 0.01207	 0.06905	 0.11519	 312.0	 312.0	 312.0	 0.0	 0.0	 1	 -30.0	 30.0;
	146	 3008	 0.00168	 0.01604	 0.51488	 724.0	 724.0	 724.0	 0.0	 0.0	 1	 -30.0	 30.0;
	3011	 172	 0.0018	 0.01616	 0.0484	 387.0	 387.0	 387.0	 0.0	 0.0	 1	 -30.0	 30.0;
	3011	 173	 0.0018	 0.01616	 0.0484	 387.0	 387.0	 387.0	 0.0	 0.0	 1	 -30.0	 30.0;
	3012	 63	 0.00223	 0.02209	 0.69011	 737.0	 737.0	 737.0	 0.0	 0.0	 1	 -30.0	 30.0;
	3012	 64	 0.00223	 0.02209	 0.69011	 737.0	 737.0	 737.0	 0.0	 0.0	 1	 -30.0	 30.0;
	99	 3006	 0.00293	 0.03054	 0.95472	 755.0	 755.0	 755.0	 0.0	 0.0	 1	 -30.0	 30.0;
	58	 30	 0.01174	 0.07014	 0.12689	 319.0	 319.0	 319.0	 0.0	 0.0	 1	 -30.0	 30.0;
	37	 107	 0.00919	 0.06614	 0.10451	 348.0	 348.0	 348.0	 0.0	 0.0	 1	 -30.0	 30.0;
	38	 108	 0.00822	 0.05767	 0.0982	 344.0	 344.0	 344.0	 0.0	 0.0	 1	 -30.0	 30.0;
	169	 42	 0.01698	 0.12459	 0.1957	 256.0	 256.0	 256.0	 0.0	 0.0	 1	 -30.0	 30.0;
	155	 48	 0.01298	 0.06738	 0.10284	 298.0	 298.0	 298.0	 0.0	 0.0	 1	 -30.0	 30.0;
	154	 27	 0.01068	 0.0475	 0.09495	 277.0	 277.0	 277.0	 0.0	 0.0	 1	 -30.0	 30.0;
	191	 28	 0.01436	 0.10729	 0.16081	 298.0	 298.0	 298.0	 0.0	 0.0	 1	 -30.0	 30.0;
	55	 126	 0.01488	 0.08161	 0.1148	 306.0	 306.0	 306.0	 0.0	 0.0	 1	 -30.0	 30.0;
	54	 108	 0.01116	 0.07171	 0.10367	 330.0	 330.0	 330.0	 0.0	 0.0	 1	 -30.0	 30.0;
	207	 100	 0.00552	 0.05948	 0.17077	 422.0	 422.0	 422.0	 0.0	 0.0	 1	 -30.0	 30.0;
	238	 192	 0.01118	 0.06597	 0.10778	 317.0	 317.0	 317.0	 0.0	 0.0	 1	 -30.0	 30.0;
	226	 191	 0.01682	 0.08909	 0.12993	 301.0	 301.0	 301.0	 0.0	 0.0	 1	 -30.0	 30.0;
	225	 192	 0.01384	 0.08702	 0.13484	 327.0	 327.0	 327.0	 0.0	 0.0	 1	 -30.0	 30.0;
	242	 195	 0.01517	 0.09938	 0.14492	 274.0	 274.0	 274.0	 0.0	 0.0	 1	 -30.0	 30.0;
	59	 16	 0.01347	 0.07316	 0.13418	 305.0	 305.0	 305.0	 0.0	 0.0	 1	 -30.0	 30.0;
	233	 25	 0.01403	 0.10413	 0.15949	 307.0	 307.0	 307.0	 0.0	 0.0	 1	 -30.0	 30.0;
	117	 70	 0.00374	 0.0438	 0.10096	 439.0	 439.0	 439.0	 0.0	 0.0	 1	 -30.0	 30.0;
	190	 99	 0.00194	 0.02007	 0.54307	 753.0	 753.0	 753.0	 0.0	 0.0	 1	 -30.0	 30.0;
	60	 12	 0.0015	 0.01506	 0.4032	 742.0	 742.0	 742.0	 0.0	 0.0	 1	 -30.0	 30.0;
	214	 174	 0.00296	 0.03484	 0.9296	 800.0	 800.0	 800.0	 0.0	 0.0	 1	 -30.0	 30.0;
	138	 72	 0.00169	 0.01931	 0.53814	 789.0	 789.0	 789.0	 0.0	 0.0	 1	 -30.0	 30.0;
	41	 110	 0.00137	 0.01569	 0.43744	 790.0	 790.0	 790.0	 0.0	 0.0	 1	 -30.0	 30.0;
	40	 141	 0.00234	 0.02677	 0.74653	 790.0	 790.0	 790.0	 0.0	 0.0	 1	 -30.0	 30.0;
	34	 222	 0.00217	 0.02513	 0.67098	 794.0	 794.0	 794.0	 0.0	 0.0	 1	 -30.0	 30.0;
	138	 80	 0.00152	 0.01739	 0.48083	 790.0	 790.0	 790.0	 0.0	 0.0	 1	 -30.0	 30.0;
	140	 80	 0.00468	 0.05347	 1.48883	 537.0	 537.0	 537.0	 0.0	 0.0	 1	 -30.0	 30.0;
	99	 44	 0.00355	 0.03617	 0.95894	 747.0	 747.0	 747.0	 0.0	 0.0	 1	 -30.0	 30.0;
	109	 40	 0.00195	 0.02103	 0.5679	 768.0	 768.0	 768.0	 0.0	 0.0	 1	 -30.0	 30.0;
	63	 139	 0.00144	 0.01446	 0.51213	 742.0	 742.0	 742.0	 0.0	 0.0	 1	 -30.0	 30.0;
	14	 6	 0.013	 0.09781	 0.14013	 326.0	 326.0	 326.0	 0.0	 0.0	 1	 -30.0	 30.0;
	43	 14	 0.00525	 0.03847	 0.06053	 351.0	 351.0	 351.0	 0.0	 0.0	 1	 -30.0	 30.0;
	33	 6	 0.00457	 0.03351	 0.05245	 352.0	 352.0	 352.0	 0.0	 0.0	 1	 -30.0	 30.0;
	24	 9	 0.01469	 0.10915	 0.16676	 293.0	 293.0	 293.0	 0.0	 0.0	 1	 -30.0	 30.0;
	29	 16	 0.01262	 0.09326	 0.14324	 342.0	 342.0	 342.0	 0.0	 0.0	 1	 -30.0	 30.0;
	37	 7	 0.00924	 0.05052	 0.07698	 306.0	 306.0	 306.0	 0.0	 0.0	 1	 -30.0	 30.0;
	24	 3	 0.01068	 0.07936	 0.12155	 274.0	 274.0	 274.0	 0.0	 0.0	 1	 -30.0	 30.0;
	37	 27	 0.00585	 0.04027	 0.07161	 341.0	 341.0	 341.0	 0.0	 0.0	 1	 -30.0	 30.0;
	39	 26	 0.00585	 0.04027	 0.07161	 341.0	 341.0	 341.0	 0.0	 0.0	 1	 -30.0	 30.0;
	15	 8	 0.00558	 0.04147	 0.0629	 354.0	 354.0	 354.0	 0.0	 0.0	 1	 -30.0	 30.0;
	46	 14	 0.00089	 0.0063	 0.0108	 346.0	 346.0	 346.0	 0.0	 0.0	 1	 -30.0	 30.0;
	31	 15	 0.00442	 0.02374	 0.04477	 303.0	 303.0	 303.0	 0.0	 0.0	 1	 -30.0	 30.0;
	47	 7	 0.00494	 0.0269	 0.04225	 305.0	 305.0	 305.0	 0.0	 0.0	 1	 -30.0	 30.0;
	26	 6	 0.00287	 0.01671	 0.02467	 315.0	 315.0	 315.0	 0.0	 0.0	 1	 -30.0	 30.0;
	37	 1	 0.0012	 0.0089	 0.01512	 353.0	 353.0	 353.0	 0.0	 0.0	 1	 -30.0	 30.0;
	39	 2	 0.0012	 0.0089	 0.01513	 353.0	 353.0	 353.0	 0.0	 0.0	 1	 -30.0	 30.0;
	38	 32	 0.00399	 0.02901	 0.04808	 350.0	 350.0	 350.0	 0.0	 0.0	 1	 -30.0	 30.0;
	34	 12	 0.00298	 0.03445	 0.94221	 794.0	 794.0	 794.0	 0.0	 0.0	 1	 -30.0	 30.0;
	40	 34	 0.00358	 0.04122	 1.13382	 696.0	 696.0	 696.0	 0.0	 0.0	 1	 -30.0	 30.0;
	20	 41	 0.00342	 0.03928	 1.08288	 730.0	 730.0	 730.0	 0.0	 0.0	 1	 -30.0	 30.0;
	11	 22	 0.00286	 0.0335	 0.89392	 799.0	 799.0	 799.0	 0.0	 0.0	 1	 -30.0	 30.0;
	11	 20	 0.0011	 0.01259	 0.3496	 790.0	 790.0	 790.0	 0.0	 0.0	 1	 -30.0	 30.0;
	44	 41	 0.00076	 0.00868	 0.24096	 789.0	 789.0	 789.0	 0.0	 0.0	 1	 -30.0	 30.0;
	79	 74	 0.01054	 0.06151	 0.09306	 315.0	 315.0	 315.0	 0.0	 0.0	 1	 -30.0	 30.0;
	76	 71	 0.00905	 0.06723	 0.10296	 354.0	 354.0	 354.0	 0.0	 0.0	 1	 -30.0	 30.0;
	83	 49	 0.0114	 0.06587	 0.09975	 274.0	 274.0	 274.0	 0.0	 0.0	 1	 -30.0	 30.0;
	66	 49	 0.0107	 0.06628	 0.10825	 324.0	 324.0	 324.0	 0.0	 0.0	 1	 -30.0	 30.0;
	74	 57	 0.00543	 0.03733	 0.06668	 341.0	 341.0	 341.0	 0.0	 0.0	 1	 -30.0	 30.0;
	75	 59	 0.00543	 0.03733	 0.06668	 341.0	 341.0	 341.0	 0.0	 0.0	 1	 -30.0	 30.0;
	75	 49	 0.00657	 0.0481	 0.0727	 351.0	 351.0	 351.0	 0.0	 0.0	 1	 -30.0	 30.0;
	84	 67	 0.00302	 0.0201	 0.03069	 336.0	 336.0	 336.0	 0.0	 0.0	 1	 -30.0	 30.0;
	67	 53	 0.007	 0.05138	 0.08084	 352.0	 352.0	 352.0	 0.0	 0.0	 1	 -30.0	 30.0;
	51	 70	 0.00329	 0.02506	 0.0439	 358.0	 358.0	 358.0	 0.0	 0.0	 1	 -30.0	 30.0;
	52	 50	 0.00789	 0.05868	 0.08985	 354.0	 354.0	 354.0	 0.0	 0.0	 1	 -30.0	 30.0;
	71	 52	 0.00558	 0.04062	 0.06491	 350.0	 350.0	 350.0	 0.0	 0.0	 1	 -30.0	 30.0;
	83	 51	 0.00452	 0.03366	 0.05156	 354.0	 354.0	 354.0	 0.0	 0.0	 1	 -30.0	 30.0;
	83	 82	 0.00134	 0.00996	 0.01337	 354.0	 354.0	 354.0	 0.0	 0.0	 1	 -30.0	 30.0;
	78	 57	 0.00618	 0.04353	 0.07649	 345.0	 345.0	 345.0	 0.0	 0.0	 1	 -30.0	 30.0;
	79	 58	 0.00618	 0.04353	 0.07649	 345.0	 345.0	 345.0	 0.0	 0.0	 1	 -30.0	 30.0;
	78	 54	 0.01219	 0.0637	 0.09333	 299.0	 299.0	 299.0	 0.0	 0.0	 1	 -30.0	 30.0;
	77	 55	 0.00246	 0.01826	 0.02798	 354.0	 354.0	 354.0	 0.0	 0.0	 1	 -30.0	 30.0;
	62	 54	 0.00242	 0.01531	 0.02249	 328.0	 328.0	 328.0	 0.0	 0.0	 1	 -30.0	 30.0;
	65	 61	 0.0017	 0.01977	 0.53386	 796.0	 796.0	 796.0	 0.0	 0.0	 1	 -30.0	 30.0;
	73	 69	 0.00116	 0.013	 0.33856	 782.0	 782.0	 782.0	 0.0	 0.0	 1	 -30.0	 30.0;
	56	 72	 0.00218	 0.02536	 0.68579	 796.0	 796.0	 796.0	 0.0	 0.0	 1	 -30.0	 30.0;
	80	 73	 0.00105	 0.01123	 0.28195	 765.0	 765.0	 765.0	 0.0	 0.0	 1	 -30.0	 30.0;
	64	 81	 0.00119	 0.01428	 0.36666	 808.0	 808.0	 808.0	 0.0	 0.0	 1	 -30.0	 30.0;
	68	 60	 0.00184	 0.02139	 0.5777	 796.0	 796.0	 796.0	 0.0	 0.0	 1	 -30.0	 30.0;
	113	 144	 0.00488	 0.03362	 0.05961	 341.0	 341.0	 341.0	 0.0	 0.0	 1	 -30.0	 30.0;
	91	 124	 0.01093	 0.05919	 0.08439	 290.0	 290.0	 290.0	 0.0	 0.0	 1	 -30.0	 30.0;
	124	 111	 0.00194	 0.01415	 0.0223	 351.0	 351.0	 351.0	 0.0	 0.0	 1	 -30.0	 30.0;
	95	 150	 0.00192	 0.01355	 0.023	 345.0	 345.0	 345.0	 0.0	 0.0	 1	 -30.0	 30.0;
	150	 102	 0.00238	 0.01667	 0.02846	 344.0	 344.0	 344.0	 0.0	 0.0	 1	 -30.0	 30.0;
	123	 150	 0.00279	 0.02017	 0.03204	 349.0	 349.0	 349.0	 0.0	 0.0	 1	 -30.0	 30.0;
	151	 149	 0.00066	 0.00496	 0.00758	 356.0	 356.0	 356.0	 0.0	 0.0	 1	 -30.0	 30.0;
	123	 151	 0.00537	 0.04039	 0.06005	 356.0	 356.0	 356.0	 0.0	 0.0	 1	 -30.0	 30.0;
	108	 151	 0.00083	 0.00525	 0.00868	 305.0	 305.0	 305.0	 0.0	 0.0	 1	 -30.0	 30.0;
	117	 137	 0.01589	 0.0876	 0.11682	 307.0	 307.0	 307.0	 0.0	 0.0	 1	 -30.0	 30.0;
	97	 130	 0.00217	 0.01459	 0.02575	 316.0	 316.0	 316.0	 0.0	 0.0	 1	 -30.0	 30.0;
	134	 118	 0.01773	 0.11678	 0.16361	 273.0	 273.0	 273.0	 0.0	 0.0	 1	 -30.0	 30.0;
	145	 90	 0.00593	 0.04093	 0.07215	 342.0	 342.0	 342.0	 0.0	 0.0	 1	 -30.0	 30.0;
	125	 107	 0.0039	 0.02847	 0.04498	 351.0	 351.0	 351.0	 0.0	 0.0	 1	 -30.0	 30.0;
	136	 95	 0.00816	 0.04242	 0.0612	 298.0	 298.0	 298.0	 0.0	 0.0	 1	 -30.0	 30.0;
	137	 94	 0.00816	 0.04242	 0.0612	 298.0	 298.0	 298.0	 0.0	 0.0	 1	 -30.0	 30.0;
	95	 92	 0.00519	 0.03839	 0.05875	 353.0	 353.0	 353.0	 0.0	 0.0	 1	 -30.0	 30.0;
	94	 89	 0.00213	 0.01403	 0.0226	 334.0	 334.0	 334.0	 0.0	 0.0	 1	 -30.0	 30.0;
	131	 94	 0.00463	 0.02775	 0.04612	 319.0	 319.0	 319.0	 0.0	 0.0	 1	 -30.0	 30.0;
	120	 88	 0.01122	 0.07074	 0.11571	 290.0	 290.0	 290.0	 0.0	 0.0	 1	 -30.0	 30.0;
	127	 135	 0.00601	 0.04147	 0.07364	 342.0	 342.0	 342.0	 0.0	 0.0	 1	 -30.0	 30.0;
	108	 85	 0.00207	 0.01279	 0.02055	 316.0	 316.0	 316.0	 0.0	 0.0	 1	 -30.0	 30.0;
	103	 107	 0.00136	 0.0099	 0.01586	 350.0	 350.0	 350.0	 0.0	 0.0	 1	 -30.0	 30.0;
	148	 104	 0.00058	 0.00417	 0.00684	 348.0	 348.0	 348.0	 0.0	 0.0	 1	 -30.0	 30.0;
	152	 92	 0.00085	 0.00624	 0.00954	 352.0	 352.0	 352.0	 0.0	 0.0	 1	 -30.0	 30.0;
	153	 93	 0.00085	 0.00626	 0.00948	 352.0	 352.0	 352.0	 0.0	 0.0	 1	 -30.0	 30.0;
	119	 93	 0.00159	 0.01112	 0.01913	 344.0	 344.0	 344.0	 0.0	 0.0	 1	 -30.0	 30.0;
	144	 121	 0.00314	 0.02159	 0.03839	 341.0	 341.0	 341.0	 0.0	 0.0	 1	 -30.0	 30.0;
	145	 128	 0.00455	 0.03157	 0.05531	 342.0	 342.0	 342.0	 0.0	 0.0	 1	 -30.0	 30.0;
	121	 101	 0.00145	 0.01008	 0.01719	 343.0	 343.0	 343.0	 0.0	 0.0	 1	 -30.0	 30.0;
	122	 112	 0.00384	 0.02721	 0.04517	 346.0	 346.0	 346.0	 0.0	 0.0	 1	 -30.0	 30.0;
	129	 96	 0.00777	 0.04128	 0.06391	 302.0	 302.0	 302.0	 0.0	 0.0	 1	 -30.0	 30.0;
	106	 94	 0.00446	 0.03041	 0.04867	 290.0	 290.0	 290.0	 0.0	 0.0	 1	 -30.0	 30.0;
	135	 125	 0.00589	 0.03506	 0.05235	 318.0	 318.0	 318.0	 0.0	 0.0	 1	 -30.0	 30.0;
	126	 116	 0.00316	 0.02378	 0.03527	 356.0	 356.0	 356.0	 0.0	 0.0	 1	 -30.0	 30.0;
	134	 95	 0.00184	 0.0126	 0.0224	 340.0	 340.0	 340.0	 0.0	 0.0	 1	 -30.0	 30.0;
	123	 105	 0.00171	 0.00961	 0.01424	 310.0	 310.0	 310.0	 0.0	 0.0	 1	 -30.0	 30.0;
	115	 95	 0.00341	 0.02442	 0.03997	 348.0	 348.0	 348.0	 0.0	 0.0	 1	 -30.0	 30.0;
	135	 94	 0.00184	 0.0126	 0.02239	 340.0	 340.0	 340.0	 0.0	 0.0	 1	 -30.0	 30.0;
	100	 114	 0.0057	 0.04149	 0.06617	 350.0	 350.0	 350.0	 0.0	 0.0	 1	 -30.0	 30.0;
	143	 136	 0.00459	 0.02463	 0.03616	 303.0	 303.0	 303.0	 0.0	 0.0	 1	 -30.0	 30.0;
	142	 127	 0.00215	 0.01333	 0.02211	 325.0	 325.0	 325.0	 0.0	 0.0	 1	 -30.0	 30.0;
	117	 87	 0.00079	 0.00488	 0.00726	 137.0	 137.0	 137.0	 0.0	 0.0	 1	 -30.0	 30.0;
	118	 86	 0.00079	 0.00488	 0.00724	 137.0	 137.0	 137.0	 0.0	 0.0	 1	 -30.0	 30.0;
	110	 146	 0.00241	 0.02782	 0.77066	 793.0	 793.0	 793.0	 0.0	 0.0	 1	 -30.0	 30.0;
	99	 147	 0.00213	 0.02432	 0.67744	 789.0	 789.0	 789.0	 0.0	 0.0	 1	 -30.0	 30.0;
	140	 132	 0.00091	 0.0104	 0.28989	 789.0	 789.0	 789.0	 0.0	 0.0	 1	 -30.0	 30.0;
	141	 139	 0.00312	 0.03563	 0.99107	 789.0	 789.0	 789.0	 0.0	 0.0	 1	 -30.0	 30.0;
	132	 147	 0.00092	 0.01051	 0.29293	 789.0	 789.0	 789.0	 0.0	 0.0	 1	 -30.0	 30.0;
	202	 181	 0.01039	 0.08983	 0.11422	 356.0	 356.0	 356.0	 0.0	 0.0	 1	 -30.0	 30.0;
	203	 180	 0.01039	 0.08983	 0.11422	 356.0	 356.0	 356.0	 0.0	 0.0	 1	 -30.0	 30.0;
	205	 180	 0.01455	 0.0813	 0.13279	 309.0	 309.0	 309.0	 0.0	 0.0	 1	 -30.0	 30.0;
	206	 181	 0.01455	 0.0813	 0.13279	 309.0	 309.0	 309.0	 0.0	 0.0	 1	 -30.0	 30.0;
	158	 206	 0.00519	 0.03965	 0.05836	 358.0	 358.0	 358.0	 0.0	 0.0	 1	 -30.0	 30.0;
	158	 168	 0.00083	 0.00645	 0.00951	 361.0	 361.0	 361.0	 0.0	 0.0	 1	 -30.0	 30.0;
	192	 163	 0.01105	 0.08107	 0.12824	 352.0	 352.0	 352.0	 0.0	 0.0	 1	 -30.0	 30.0;
	159	 182	 0.00597	 0.04473	 0.06735	 355.0	 355.0	 355.0	 0.0	 0.0	 1	 -30.0	 30.0;
	199	 202	 0.01736	 0.10969	 0.16268	 290.0	 290.0	 290.0	 0.0	 0.0	 1	 -30.0	 30.0;
	176	 203	 0.00938	 0.06093	 0.08934	 332.0	 332.0	 332.0	 0.0	 0.0	 1	 -30.0	 30.0;
	179	 181	 0.01246	 0.09134	 0.14349	 349.0	 349.0	 349.0	 0.0	 0.0	 1	 -30.0	 30.0;
	156	 160	 0.00514	 0.03826	 0.05933	 305.0	 305.0	 305.0	 0.0	 0.0	 1	 -30.0	 30.0;
	172	 166	 0.01062	 0.0789	 0.12085	 354.0	 354.0	 354.0	 0.0	 0.0	 1	 -30.0	 30.0;
	178	 209	 0.00769	 0.0569	 0.08673	 353.0	 353.0	 353.0	 0.0	 0.0	 1	 -30.0	 30.0;
	178	 208	 0.00225	 0.01667	 0.02541	 286.0	 286.0	 286.0	 0.0	 0.0	 1	 -30.0	 30.0;
	199	 170	 0.01851	 0.1088	 0.14435	 292.0	 292.0	 292.0	 0.0	 0.0	 1	 -30.0	 30.0;
	204	 198	 0.00236	 0.01411	 0.02031	 229.0	 229.0	 229.0	 0.0	 0.0	 1	 -30.0	 30.0;
	198	 163	 0.00355	 0.02607	 0.04096	 352.0	 352.0	 352.0	 0.0	 0.0	 1	 -30.0	 30.0;
	199	 194	 0.013	 0.07589	 0.11484	 315.0	 315.0	 315.0	 0.0	 0.0	 1	 -30.0	 30.0;
	198	 177	 0.00934	 0.0539	 0.08683	 314.0	 314.0	 314.0	 0.0	 0.0	 1	 -30.0	 30.0;
	170	 154	 0.00698	 0.0374	 0.05463	 303.0	 303.0	 303.0	 0.0	 0.0	 1	 -30.0	 30.0;
	169	 155	 0.00436	 0.03202	 0.0503	 352.0	 352.0	 352.0	 0.0	 0.0	 1	 -30.0	 30.0;
	191	 170	 0.0006	 0.00351	 0.00555	 316.0	 316.0	 316.0	 0.0	 0.0	 1	 -30.0	 30.0;
	192	 169	 0.0006	 0.00351	 0.00555	 316.0	 316.0	 316.0	 0.0	 0.0	 1	 -30.0	 30.0;
	179	 166	 0.01058	 0.07762	 0.12203	 352.0	 352.0	 352.0	 0.0	 0.0	 1	 -30.0	 30.0;
	185	 172	 0.00469	 0.03486	 0.05338	 354.0	 354.0	 354.0	 0.0	 0.0	 1	 -30.0	 30.0;
	173	 164	 0.00568	 0.04012	 0.07033	 345.0	 345.0	 345.0	 0.0	 0.0	 1	 -30.0	 30.0;
	196	 164	 0.00105	 0.00733	 0.01258	 343.0	 343.0	 343.0	 0.0	 0.0	 1	 -30.0	 30.0;
	197	 185	 0.00744	 0.05397	 0.09307	 350.0	 350.0	 350.0	 0.0	 0.0	 1	 -30.0	 30.0;
	206	 157	 0.00221	 0.01618	 0.02541	 351.0	 351.0	 351.0	 0.0	 0.0	 1	 -30.0	 30.0;
	207	 205	 0.00525	 0.03837	 0.06052	 351.0	 351.0	 351.0	 0.0	 0.0	 1	 -30.0	 30.0;
	210	 202	 0.00236	 0.01746	 0.02676	 353.0	 353.0	 353.0	 0.0	 0.0	 1	 -30.0	 30.0;
	183	 161	 0.00274	 0.02778	 0.69846	 746.0	 746.0	 746.0	 0.0	 0.0	 1	 -30.0	 30.0;
	189	 162	 0.00171	 0.01741	 0.45456	 747.0	 747.0	 747.0	 0.0	 0.0	 1	 -30.0	 30.0;
	187	 190	 0.00136	 0.01599	 0.41965	 800.0	 800.0	 800.0	 0.0	 0.0	 1	 -30.0	 30.0;
	200	 175	 0.00373	 0.04344	 1.172	 661.0	 661.0	 661.0	 0.0	 0.0	 1	 -30.0	 30.0;
	218	 225	 0.02738	 0.14254	 0.20047	 222.0	 222.0	 222.0	 0.0	 0.0	 1	 -30.0	 30.0;
...